
  SciTegic04091415032D

 34 37  0  0  0  0            999 V2000
   10.4112  -24.7754    0.0000 C   0  0
   10.4101  -25.6027    0.0000 C   0  0
   11.1249  -26.0157    0.0000 C   0  0
   11.8414  -25.6022    0.0000 C   0  0
   11.8385  -24.7718    0.0000 C   0  0
   11.1231  -24.3626    0.0000 C   0  0
    9.6953  -26.0146    0.0000 C   0  0
   11.1206  -23.5376    0.0000 C   0  0
   12.5564  -26.0136    0.0000 C   0  0
   12.5529  -26.8391    0.0000 C   0  0
   13.2672  -27.2504    0.0000 N   0  0
   13.9820  -26.8366    0.0000 C   0  0
   13.9780  -26.0074    0.0000 C   0  0
   13.2631  -25.5998    0.0000 C   0  0
   14.6904  -25.5912    0.0000 C   0  0
   15.4070  -26.0001    0.0000 O   0  0
   14.6862  -24.7662    0.0000 N   0  0
   14.6976  -27.2470    0.0000 C   0  0
   14.6957  -28.0724    0.0000 C   0  0
   15.4105  -28.4827    0.0000 N   0  0
   16.1248  -28.0681    0.0000 C   0  0
   16.1197  -27.2389    0.0000 C   0  0
   15.4043  -26.8322    0.0000 C   0  0
   15.3986  -24.3501    0.0000 C   0  0
   15.3944  -23.5250    0.0000 C   0  0
   16.1070  -23.1149    0.0000 C   0  0
   14.6713  -22.3015    0.0000 C   0  0
   14.6787  -23.1243    0.0000 C   0  0
   15.3828  -21.8836    0.0000 C   0  0
   16.0995  -22.2904    0.0000 C   0  0
   15.3768  -21.0586    0.0000 O   0  0
   16.0881  -20.6408    0.0000 C   0  0
   13.9535  -21.8949    0.0000 O   0  0
   13.9466  -21.0699    0.0000 C   0  0
  1  2  2  0
  2  3  1  0
  3  4  2  0
  4  5  1  0
  5  6  2  0
  6  1  1  0
  2  7  1  0
  6  8  1  0
  4  9  1  0
  9 10  2  0
 10 11  1  0
 11 12  2  0
 12 13  1  0
 13 14  2  0
 14  9  1  0
 13 15  1  0
 15 16  2  0
 15 17  1  0
 12 18  1  0
 18 19  2  0
 19 20  1  0
 20 21  2  0
 21 22  1  0
 22 23  2  0
 23 18  1  0
 17 24  1  0
 24 25  1  0
 25 26  2  0
 26 30  1  0
 29 27  1  0
 27 28  2  0
 28 25  1  0
 29 30  2  0
 29 31  1  0
 31 32  1  0
 27 33  1  0
 33 34  1  0
M  END
> <chembl_id>
CHEMBL3099893

$$$$

  SciTegic04091415032D

 34 38  0  0  0  0            999 V2000
   19.1202   -5.8627    0.0000 C   0  0
   19.1191   -6.6901    0.0000 C   0  0
   19.8339   -7.1030    0.0000 C   0  0
   20.5504   -6.6896    0.0000 C   0  0
   20.5475   -5.8591    0.0000 C   0  0
   19.8320   -5.4499    0.0000 C   0  0
   18.4043   -7.1020    0.0000 C   0  0
   19.8296   -4.6249    0.0000 C   0  0
   21.2655   -7.1010    0.0000 C   0  0
   21.2619   -7.9265    0.0000 C   0  0
   21.9762   -8.3378    0.0000 N   0  0
   22.6910   -7.9240    0.0000 C   0  0
   22.6871   -7.0947    0.0000 C   0  0
   21.9722   -6.6872    0.0000 C   0  0
   23.3995   -6.6786    0.0000 C   0  0
   24.1161   -7.0875    0.0000 O   0  0
   23.3953   -5.8535    0.0000 N   0  0
   23.4067   -8.3345    0.0000 C   0  0
   23.4048   -9.1598    0.0000 C   0  0
   24.1196   -9.5702    0.0000 N   0  0
   24.8339   -9.1555    0.0000 C   0  0
   24.8288   -8.3263    0.0000 C   0  0
   24.1134   -7.9196    0.0000 C   0  0
   24.1077   -5.4374    0.0000 C   0  0
   24.1035   -4.6123    0.0000 C   0  0
   24.8161   -4.2021    0.0000 C   0  0
   23.3804   -3.3888    0.0000 C   0  0
   23.3877   -4.2116    0.0000 C   0  0
   24.0951   -2.9682    0.0000 C   0  0
   24.8087   -3.3777    0.0000 C   0  0
   25.4187   -2.8256    0.0000 C   0  0
   25.0821   -2.0754    0.0000 C   0  0
   24.2641   -2.1705    0.0000 N   0  0
   23.7085   -1.5606    0.0000 C   0  0
  1  2  2  0
  2  3  1  0
  3  4  2  0
  4  5  1  0
  5  6  2  0
  6  1  1  0
  2  7  1  0
  6  8  1  0
  4  9  1  0
  9 10  2  0
 10 11  1  0
 11 12  2  0
 12 13  1  0
 13 14  2  0
 14  9  1  0
 13 15  1  0
 15 16  2  0
 15 17  1  0
 12 18  1  0
 18 19  2  0
 19 20  1  0
 20 21  2  0
 21 22  1  0
 22 23  2  0
 23 18  1  0
 17 24  1  0
 24 25  1  0
 25 26  2  0
 26 30  1  0
 29 27  1  0
 27 28  2  0
 28 25  1  0
 29 30  2  0
 30 31  1  0
 31 32  1  0
 32 33  1  0
 33 29  1  0
 33 34  1  0
M  END
> <chembl_id>
CHEMBL3099886

$$$$

  SciTegic04091415032D

 35 39  0  0  0  0            999 V2000
   28.0222   -8.3008    0.0000 C   0  0
   28.0211   -9.1282    0.0000 C   0  0
   28.7359   -9.5411    0.0000 C   0  0
   29.4524   -9.1278    0.0000 C   0  0
   29.4495   -8.2971    0.0000 C   0  0
   28.7341   -7.8879    0.0000 C   0  0
   27.3061   -9.5402    0.0000 C   0  0
   28.7317   -7.0629    0.0000 C   0  0
   30.1676   -9.5391    0.0000 C   0  0
   30.1639  -10.3646    0.0000 C   0  0
   30.8784  -10.7759    0.0000 N   0  0
   31.5932  -10.3622    0.0000 C   0  0
   31.5893   -9.5329    0.0000 C   0  0
   30.8743   -9.1253    0.0000 C   0  0
   32.3017   -9.1167    0.0000 C   0  0
   33.0183   -9.5256    0.0000 O   0  0
   32.2974   -8.2916    0.0000 N   0  0
   32.3090  -10.7727    0.0000 C   0  0
   32.3069  -11.5981    0.0000 C   0  0
   33.0219  -12.0084    0.0000 N   0  0
   33.7362  -11.5938    0.0000 C   0  0
   33.7312  -10.7644    0.0000 C   0  0
   33.0156  -10.3577    0.0000 C   0  0
   33.0100   -7.8754    0.0000 C   0  0
   33.0057   -7.0504    0.0000 C   0  0
   33.7183   -6.6401    0.0000 C   0  0
   32.2826   -5.8267    0.0000 C   0  0
   32.2900   -6.6497    0.0000 C   0  0
   31.5809   -7.8828    0.0000 C   0  0
   32.9942   -5.4087    0.0000 C   0  0
   33.7110   -5.8156    0.0000 C   0  0
   34.4195   -5.3984    0.0000 N   0  0
   34.4127   -4.5744    0.0000 C   0  0
   33.6912   -4.1696    0.0000 C   0  0
   32.9855   -4.5891    0.0000 N   0  0
  1  2  2  0
  2  3  1  0
  3  4  2  0
  4  5  1  0
  5  6  2  0
  6  1  1  0
  2  7  1  0
  6  8  1  0
  4  9  1  0
  9 10  2  0
 10 11  1  0
 11 12  2  0
 12 13  1  0
 13 14  2  0
 14  9  1  0
 13 15  1  0
 15 16  2  0
 15 17  1  0
 12 18  1  0
 18 19  2  0
 19 20  1  0
 20 21  2  0
 21 22  1  0
 22 23  2  0
 23 18  1  0
 17 24  1  0
 24 25  1  0
 25 26  2  0
 26 31  1  0
 30 27  1  0
 27 28  2  0
 28 25  1  0
 17 29  1  0
 30 31  1  0
 31 32  2  0
 32 33  1  0
 33 34  2  0
 34 35  1  0
 35 30  2  0
M  END
> <chembl_id>
CHEMBL3099887

$$$$

  SciTegic04091415032D

 32 35  0  0  0  0            999 V2000
   20.6614  -15.2252    0.0000 C   0  0
   20.6603  -16.0526    0.0000 C   0  0
   21.3750  -16.4655    0.0000 C   0  0
   22.0915  -16.0521    0.0000 C   0  0
   22.0886  -15.2216    0.0000 C   0  0
   21.3732  -14.8124    0.0000 C   0  0
   19.9454  -16.4645    0.0000 C   0  0
   21.3708  -13.9874    0.0000 C   0  0
   22.8066  -16.4635    0.0000 C   0  0
   22.8031  -17.2888    0.0000 C   0  0
   23.5173  -17.7002    0.0000 N   0  0
   24.2321  -17.2865    0.0000 C   0  0
   24.2282  -16.4572    0.0000 C   0  0
   23.5133  -16.0497    0.0000 C   0  0
   24.9405  -16.0411    0.0000 C   0  0
   25.6571  -16.4499    0.0000 O   0  0
   24.9363  -15.2160    0.0000 N   0  0
   24.9478  -17.6969    0.0000 C   0  0
   24.9458  -18.5222    0.0000 C   0  0
   25.6607  -18.9326    0.0000 N   0  0
   26.3749  -18.5180    0.0000 C   0  0
   26.3699  -17.6887    0.0000 C   0  0
   25.6545  -17.2820    0.0000 C   0  0
   25.6488  -14.7999    0.0000 C   0  0
   25.6445  -13.9749    0.0000 C   0  0
   26.3572  -13.5647    0.0000 C   0  0
   24.9215  -12.7514    0.0000 C   0  0
   24.9288  -13.5742    0.0000 C   0  0
   25.6330  -12.3334    0.0000 C   0  0
   26.3497  -12.7403    0.0000 C   0  0
   24.2036  -12.3447    0.0000 O   0  0
   24.1968  -11.5197    0.0000 C   0  0
  1  2  2  0
  2  3  1  0
  3  4  2  0
  4  5  1  0
  5  6  2  0
  6  1  1  0
  2  7  1  0
  6  8  1  0
  4  9  1  0
  9 10  2  0
 10 11  1  0
 11 12  2  0
 12 13  1  0
 13 14  2  0
 14  9  1  0
 13 15  1  0
 15 16  2  0
 15 17  1  0
 12 18  1  0
 18 19  2  0
 19 20  1  0
 20 21  2  0
 21 22  1  0
 22 23  2  0
 23 18  1  0
 17 24  1  0
 24 25  1  0
 25 26  2  0
 26 30  1  0
 29 27  1  0
 27 28  2  0
 28 25  1  0
 29 30  2  0
 27 31  1  0
 31 32  1  0
M  END
> <chembl_id>
CHEMBL3099890

$$$$

  SciTegic04091415032D

 33 37  0  0  0  0            999 V2000
    2.2236   -5.0584    0.0000 C   0  0
    2.2225   -5.8858    0.0000 C   0  0
    2.9372   -6.2986    0.0000 C   0  0
    3.6537   -5.8853    0.0000 C   0  0
    3.6509   -5.0547    0.0000 C   0  0
    2.9354   -4.6456    0.0000 C   0  0
    1.5076   -6.2977    0.0000 C   0  0
    2.9330   -3.8206    0.0000 C   0  0
    4.3688   -6.2967    0.0000 C   0  0
    4.3653   -7.1220    0.0000 C   0  0
    5.0796   -7.5333    0.0000 N   0  0
    5.7943   -7.1197    0.0000 C   0  0
    5.7904   -6.2903    0.0000 C   0  0
    5.0755   -5.8828    0.0000 C   0  0
    6.5028   -5.8742    0.0000 C   0  0
    7.2193   -6.2831    0.0000 O   0  0
    6.4986   -5.0493    0.0000 N   0  0
    6.5100   -7.5301    0.0000 C   0  0
    6.5080   -8.3554    0.0000 C   0  0
    7.2229   -8.7657    0.0000 N   0  0
    7.9372   -8.3511    0.0000 C   0  0
    7.9321   -7.5218    0.0000 C   0  0
    7.2167   -7.1153    0.0000 C   0  0
    7.2110   -4.6331    0.0000 C   0  0
    7.2067   -3.8081    0.0000 C   0  0
    7.9194   -3.3978    0.0000 C   0  0
    6.4837   -2.5845    0.0000 C   0  0
    6.4910   -3.4074    0.0000 C   0  0
    7.1983   -2.1639    0.0000 C   0  0
    7.9119   -2.5734    0.0000 C   0  0
    8.5219   -2.0214    0.0000 O   0  0
    8.1853   -1.2712    0.0000 C   0  0
    7.3673   -1.3663    0.0000 O   0  0
  1  2  2  0
  2  3  1  0
  3  4  2  0
  4  5  1  0
  5  6  2  0
  6  1  1  0
  2  7  1  0
  6  8  1  0
  4  9  1  0
  9 10  2  0
 10 11  1  0
 11 12  2  0
 12 13  1  0
 13 14  2  0
 14  9  1  0
 13 15  1  0
 15 16  2  0
 15 17  1  0
 12 18  1  0
 18 19  2  0
 19 20  1  0
 20 21  2  0
 21 22  1  0
 22 23  2  0
 23 18  1  0
 17 24  1  0
 24 25  1  0
 25 26  2  0
 26 30  1  0
 29 27  1  0
 27 28  2  0
 28 25  1  0
 29 30  2  0
 30 31  1  0
 31 32  1  0
 32 33  1  0
 33 29  1  0
M  END
> <chembl_id>
CHEMBL3099884

$$$$

  SciTegic04091415032D

 35 38  0  0  0  0            999 V2000
    1.7569  -24.0291    0.0000 C   0  0
    1.7557  -24.8564    0.0000 C   0  0
    2.4706  -25.2693    0.0000 C   0  0
    3.1870  -24.8560    0.0000 C   0  0
    3.1841  -24.0254    0.0000 C   0  0
    2.4688  -23.6163    0.0000 C   0  0
    1.0409  -25.2684    0.0000 C   0  0
    2.4662  -22.7913    0.0000 C   0  0
    3.9021  -25.2673    0.0000 C   0  0
    3.8985  -26.0927    0.0000 C   0  0
    4.6127  -26.5040    0.0000 N   0  0
    5.3276  -26.0903    0.0000 C   0  0
    5.3237  -25.2610    0.0000 C   0  0
    4.6088  -24.8535    0.0000 C   0  0
    6.0360  -24.8449    0.0000 C   0  0
    6.7526  -25.2538    0.0000 O   0  0
    6.0318  -24.0199    0.0000 N   0  0
    6.0433  -26.5008    0.0000 C   0  0
    6.0413  -27.3260    0.0000 C   0  0
    6.7561  -27.7364    0.0000 N   0  0
    7.4704  -27.3217    0.0000 C   0  0
    7.4652  -26.4925    0.0000 C   0  0
    6.7499  -26.0858    0.0000 C   0  0
    6.7441  -23.6037    0.0000 C   0  0
    6.7400  -22.7788    0.0000 C   0  0
    7.4525  -22.3686    0.0000 C   0  0
    6.0168  -21.5553    0.0000 C   0  0
    6.0242  -22.3781    0.0000 C   0  0
    6.7285  -21.1373    0.0000 C   0  0
    7.4451  -21.5442    0.0000 C   0  0
    5.2990  -21.1486    0.0000 F   0  0
    6.7223  -20.3123    0.0000 C   0  0
    7.4337  -19.8945    0.0000 F   0  0
    6.0048  -19.9051    0.0000 F   0  0
    6.7167  -19.4833    0.0000 F   0  0
  1  2  2  0
  2  3  1  0
  3  4  2  0
  4  5  1  0
  5  6  2  0
  6  1  1  0
  2  7  1  0
  6  8  1  0
  4  9  1  0
  9 10  2  0
 10 11  1  0
 11 12  2  0
 12 13  1  0
 13 14  2  0
 14  9  1  0
 13 15  1  0
 15 16  2  0
 15 17  1  0
 12 18  1  0
 18 19  2  0
 19 20  1  0
 20 21  2  0
 21 22  1  0
 22 23  2  0
 23 18  1  0
 17 24  1  0
 24 25  1  0
 25 26  2  0
 26 30  1  0
 29 27  1  0
 27 28  2  0
 28 25  1  0
 29 30  2  0
 27 31  1  0
 29 32  1  0
 32 33  1  0
 32 34  1  0
 32 35  1  0
M  END
> <chembl_id>
CHEMBL3099892

$$$$

  SciTegic04091415032D

 32 35  0  0  0  0            999 V2000
    2.3569  -14.3502    0.0000 C   0  0
    2.3557  -15.1776    0.0000 C   0  0
    3.0706  -15.5904    0.0000 C   0  0
    3.7871  -15.1771    0.0000 C   0  0
    3.7842  -14.3465    0.0000 C   0  0
    3.0688  -13.9374    0.0000 C   0  0
    1.6410  -15.5895    0.0000 C   0  0
    3.0664  -13.1124    0.0000 C   0  0
    4.5022  -15.5885    0.0000 C   0  0
    4.4986  -16.4138    0.0000 C   0  0
    5.2129  -16.8251    0.0000 N   0  0
    5.9277  -16.4115    0.0000 C   0  0
    5.9238  -15.5822    0.0000 C   0  0
    5.2089  -15.1747    0.0000 C   0  0
    6.6361  -15.1661    0.0000 C   0  0
    7.3527  -15.5749    0.0000 O   0  0
    6.6319  -14.3411    0.0000 N   0  0
    6.6434  -16.8219    0.0000 C   0  0
    6.6414  -17.6472    0.0000 C   0  0
    7.3562  -18.0576    0.0000 N   0  0
    8.0705  -17.6430    0.0000 C   0  0
    8.0655  -16.8136    0.0000 C   0  0
    7.3500  -16.4071    0.0000 C   0  0
    7.3442  -13.9249    0.0000 C   0  0
    7.3401  -13.0999    0.0000 C   0  0
    8.0526  -12.6897    0.0000 C   0  0
    6.6170  -11.8763    0.0000 C   0  0
    6.6244  -12.6992    0.0000 C   0  0
    7.3286  -11.4584    0.0000 C   0  0
    8.0453  -11.8652    0.0000 C   0  0
    7.3224  -10.6334    0.0000 O   0  0
    8.0339  -10.2157    0.0000 C   0  0
  1  2  2  0
  2  3  1  0
  3  4  2  0
  4  5  1  0
  5  6  2  0
  6  1  1  0
  2  7  1  0
  6  8  1  0
  4  9  1  0
  9 10  2  0
 10 11  1  0
 11 12  2  0
 12 13  1  0
 13 14  2  0
 14  9  1  0
 13 15  1  0
 15 16  2  0
 15 17  1  0
 12 18  1  0
 18 19  2  0
 19 20  1  0
 20 21  2  0
 21 22  1  0
 22 23  2  0
 23 18  1  0
 17 24  1  0
 24 25  1  0
 25 26  2  0
 26 30  1  0
 29 27  1  0
 27 28  2  0
 28 25  1  0
 29 30  2  0
 29 31  1  0
 31 32  1  0
M  END
> <chembl_id>
CHEMBL3099888

$$$$

  SciTegic04091415032D

 32 35  0  0  0  0            999 V2000
   30.8449  -16.5085    0.0000 C   0  0
   30.8437  -17.3359    0.0000 C   0  0
   31.5586  -17.7488    0.0000 C   0  0
   32.2750  -17.3354    0.0000 C   0  0
   32.2721  -16.5049    0.0000 C   0  0
   31.5568  -16.0958    0.0000 C   0  0
   30.1289  -17.7479    0.0000 C   0  0
   31.5542  -15.2708    0.0000 C   0  0
   32.9901  -17.7468    0.0000 C   0  0
   32.9865  -18.5722    0.0000 C   0  0
   33.7008  -18.9835    0.0000 N   0  0
   34.4157  -18.5698    0.0000 C   0  0
   34.4116  -17.7406    0.0000 C   0  0
   33.6968  -17.3330    0.0000 C   0  0
   35.1241  -17.3244    0.0000 C   0  0
   35.8406  -17.7333    0.0000 O   0  0
   35.1198  -16.4994    0.0000 N   0  0
   35.1313  -18.9802    0.0000 C   0  0
   35.1293  -19.8056    0.0000 C   0  0
   35.8441  -20.2159    0.0000 N   0  0
   36.5584  -19.8013    0.0000 C   0  0
   36.5533  -18.9721    0.0000 C   0  0
   35.8379  -18.5654    0.0000 C   0  0
   35.8322  -16.0833    0.0000 C   0  0
   35.8280  -15.2582    0.0000 C   0  0
   36.5406  -14.8481    0.0000 C   0  0
   35.1049  -14.0348    0.0000 C   0  0
   35.1123  -14.8576    0.0000 C   0  0
   35.8164  -13.6168    0.0000 C   0  0
   36.5332  -14.0235    0.0000 C   0  0
   34.3871  -13.6281    0.0000 C   0  0
   35.8104  -12.7918    0.0000 F   0  0
  1  2  2  0
  2  3  1  0
  3  4  2  0
  4  5  1  0
  5  6  2  0
  6  1  1  0
  2  7  1  0
  6  8  1  0
  4  9  1  0
  9 10  2  0
 10 11  1  0
 11 12  2  0
 12 13  1  0
 13 14  2  0
 14  9  1  0
 13 15  1  0
 15 16  2  0
 15 17  1  0
 12 18  1  0
 18 19  2  0
 19 20  1  0
 20 21  2  0
 21 22  1  0
 22 23  2  0
 23 18  1  0
 17 24  1  0
 24 25  1  0
 25 26  2  0
 26 30  1  0
 29 27  1  0
 27 28  2  0
 28 25  1  0
 29 30  2  0
 27 31  1  0
 29 32  1  0
M  END
> <chembl_id>
CHEMBL3099891

$$$$

  SciTegic04091415032D

 40 43  0  0  0  0            999 V2000
    4.7146  -11.4464    0.0000 C   0  0
    4.7109  -12.2718    0.0000 C   0  0
    5.4252  -12.6831    0.0000 N   0  0
    6.1401  -12.2694    0.0000 C   0  0
    6.1361  -11.4402    0.0000 C   0  0
    5.4213  -11.0326    0.0000 C   0  0
    6.8484  -11.0240    0.0000 C   0  0
    7.5650  -11.4329    0.0000 O   0  0
    6.8442  -10.1990    0.0000 N   0  0
    6.8557  -12.6799    0.0000 C   0  0
    6.8537  -13.5051    0.0000 C   0  0
    7.5686  -13.9155    0.0000 N   0  0
    8.2828  -13.5008    0.0000 C   0  0
    8.2778  -12.6716    0.0000 C   0  0
    7.5623  -12.2650    0.0000 C   0  0
    7.5565   -9.7829    0.0000 C   0  0
    8.2731  -10.1918    0.0000 C   0  0
    8.2722  -11.0177    0.0000 C   0  0
    8.9879  -11.4264    0.0000 C   0  0
    9.7012  -11.0102    0.0000 C   0  0
    9.6944  -10.1810    0.0000 C   0  0
    8.9781   -9.7759    0.0000 C   0  0
   10.4053   -9.7623    0.0000 O   0  0
   11.1233  -10.1686    0.0000 C   0  0
   10.4183  -11.4182    0.0000 O   0  0
   10.4237  -12.2431    0.0000 C   0  0
    3.9997  -11.0346    0.0000 C   0  0
    4.0015  -10.2099    0.0000 C   0  0
    3.2875   -9.7981    0.0000 C   0  0
    2.5724  -10.2113    0.0000 C   0  0
    2.5759  -11.0406    0.0000 C   0  0
    3.2904  -11.4486    0.0000 C   0  0
    3.2872   -8.9731    0.0000 C   0  0
    1.8632  -11.4563    0.0000 C   0  0
    4.0014   -8.5603    0.0000 F   0  0
    2.5725   -8.5609    0.0000 F   0  0
    3.2791   -8.1457    0.0000 F   0  0
    1.1469  -11.0469    0.0000 F   0  0
    1.8670  -12.2812    0.0000 F   0  0
    1.1458  -11.8624    0.0000 F   0  0
  1  2  2  0
  2  3  1  0
  3  4  2  0
  4  5  1  0
  5  6  2  0
  6  1  1  0
  5  7  1  0
  7  8  2  0
  7  9  1  0
  4 10  1  0
 10 11  2  0
 11 12  1  0
 12 13  2  0
 13 14  1  0
 14 15  2  0
 15 10  1  0
  9 16  1  0
 16 17  1  0
 17 18  2  0
 18 19  1  0
 19 20  2  0
 20 21  1  0
 21 22  2  0
 22 17  1  0
 21 23  1  0
 23 24  1  0
 20 25  1  0
 25 26  1  0
  1 27  1  0
 27 28  2  0
 28 29  1  0
 29 30  2  0
 30 31  1  0
 31 32  2  0
 32 27  1  0
 29 33  1  0
 31 34  1  0
 33 35  1  0
 33 36  1  0
 33 37  1  0
 34 38  1  0
 34 39  1  0
 34 40  1  0
M  END
> <chembl_id>
CHEMBL3099896

$$$$

  SciTegic04091415032D

 33 36  0  0  0  0            999 V2000
   11.6321  -14.7877    0.0000 C   0  0
   11.6310  -15.6150    0.0000 C   0  0
   12.3457  -16.0280    0.0000 C   0  0
   13.0622  -15.6146    0.0000 C   0  0
   13.0593  -14.7841    0.0000 C   0  0
   12.3439  -14.3749    0.0000 C   0  0
   10.9161  -16.0271    0.0000 C   0  0
   12.3415  -13.5499    0.0000 C   0  0
   13.7773  -16.0259    0.0000 C   0  0
   13.7737  -16.8514    0.0000 C   0  0
   14.4881  -17.2627    0.0000 N   0  0
   15.2028  -16.8489    0.0000 C   0  0
   15.1989  -16.0197    0.0000 C   0  0
   14.4840  -15.6121    0.0000 C   0  0
   15.9113  -15.6035    0.0000 C   0  0
   16.6278  -16.0124    0.0000 O   0  0
   15.9070  -14.7785    0.0000 N   0  0
   15.9185  -17.2594    0.0000 C   0  0
   15.9165  -18.0847    0.0000 C   0  0
   16.6314  -18.4951    0.0000 N   0  0
   17.3457  -18.0804    0.0000 C   0  0
   17.3406  -17.2512    0.0000 C   0  0
   16.6252  -16.8445    0.0000 C   0  0
   16.6195  -14.3624    0.0000 C   0  0
   16.6152  -13.5374    0.0000 C   0  0
   17.3278  -13.1272    0.0000 C   0  0
   15.8922  -12.3138    0.0000 C   0  0
   15.8995  -13.1367    0.0000 C   0  0
   16.6037  -11.8959    0.0000 C   0  0
   17.3204  -12.3027    0.0000 C   0  0
   16.5977  -11.0710    0.0000 N   0  0
   17.3090  -10.6531    0.0000 C   0  0
   15.8801  -10.6637    0.0000 C   0  0
  1  2  2  0
  2  3  1  0
  3  4  2  0
  4  5  1  0
  5  6  2  0
  6  1  1  0
  2  7  1  0
  6  8  1  0
  4  9  1  0
  9 10  2  0
 10 11  1  0
 11 12  2  0
 12 13  1  0
 13 14  2  0
 14  9  1  0
 13 15  1  0
 15 16  2  0
 15 17  1  0
 12 18  1  0
 18 19  2  0
 19 20  1  0
 20 21  2  0
 21 22  1  0
 22 23  2  0
 23 18  1  0
 17 24  1  0
 24 25  1  0
 25 26  2  0
 26 30  1  0
 29 27  1  0
 27 28  2  0
 28 25  1  0
 29 30  2  0
 29 31  1  0
 31 32  1  0
 31 33  1  0
M  END
> <chembl_id>
CHEMBL3099889

$$$$

  SciTegic04091415032D

 34 37  0  0  0  0            999 V2000
   31.2734  -12.3468    0.0000 C   0  0
   31.2699  -13.1721    0.0000 C   0  0
   31.9841  -13.5835    0.0000 N   0  0
   32.6989  -13.1698    0.0000 C   0  0
   32.6950  -12.3405    0.0000 C   0  0
   31.9801  -11.9329    0.0000 C   0  0
   33.4073  -11.9244    0.0000 C   0  0
   34.1239  -12.3332    0.0000 O   0  0
   33.4032  -11.0993    0.0000 N   0  0
   33.4146  -13.5802    0.0000 C   0  0
   33.4127  -14.4055    0.0000 C   0  0
   34.1275  -14.8159    0.0000 N   0  0
   34.8417  -14.4012    0.0000 C   0  0
   34.8367  -13.5720    0.0000 C   0  0
   34.1213  -13.1653    0.0000 C   0  0
   34.1155  -10.6832    0.0000 C   0  0
   34.8321  -11.0921    0.0000 C   0  0
   34.8311  -11.9180    0.0000 C   0  0
   35.5469  -12.3268    0.0000 C   0  0
   36.2603  -11.9105    0.0000 C   0  0
   36.2533  -11.0813    0.0000 C   0  0
   35.5370  -10.6762    0.0000 C   0  0
   36.9643  -10.6626    0.0000 O   0  0
   37.6823  -11.0689    0.0000 C   0  0
   36.9774  -12.3184    0.0000 O   0  0
   36.9826  -13.1434    0.0000 C   0  0
   30.5586  -11.9350    0.0000 C   0  0
   30.5604  -11.1102    0.0000 C   0  0
   29.8464  -10.6984    0.0000 C   0  0
   29.1313  -11.1116    0.0000 C   0  0
   29.1347  -11.9409    0.0000 C   0  0
   29.8493  -12.3490    0.0000 C   0  0
   29.8461   -9.8734    0.0000 F   0  0
   28.4221  -12.3566    0.0000 Cl  0  0
  1  2  2  0
  2  3  1  0
  3  4  2  0
  4  5  1  0
  5  6  2  0
  6  1  1  0
  5  7  1  0
  7  8  2  0
  7  9  1  0
  4 10  1  0
 10 11  2  0
 11 12  1  0
 12 13  2  0
 13 14  1  0
 14 15  2  0
 15 10  1  0
  9 16  1  0
 16 17  1  0
 17 18  2  0
 18 19  1  0
 19 20  2  0
 20 21  1  0
 21 22  2  0
 22 17  1  0
 21 23  1  0
 23 24  1  0
 20 25  1  0
 25 26  1  0
  1 27  1  0
 27 28  2  0
 28 29  1  0
 29 30  2  0
 30 31  1  0
 31 32  2  0
 32 27  1  0
 29 33  1  0
 31 34  1  0
M  END
> <chembl_id>
CHEMBL3099898

$$$$

  SciTegic04091415032D

 34 37  0  0  0  0            999 V2000
   16.7938   -4.5716    0.0000 C   0  0
   16.7903   -5.3969    0.0000 C   0  0
   17.5045   -5.8082    0.0000 N   0  0
   18.2193   -5.3946    0.0000 C   0  0
   18.2154   -4.5653    0.0000 C   0  0
   17.5005   -4.1578    0.0000 C   0  0
   18.9277   -4.1492    0.0000 C   0  0
   19.6443   -4.5581    0.0000 O   0  0
   18.9236   -3.3242    0.0000 N   0  0
   18.9350   -5.8050    0.0000 C   0  0
   18.9330   -6.6303    0.0000 C   0  0
   19.6478   -7.0407    0.0000 N   0  0
   20.3621   -6.6260    0.0000 C   0  0
   20.3571   -5.7968    0.0000 C   0  0
   19.6417   -5.3901    0.0000 C   0  0
   19.6359   -2.9080    0.0000 C   0  0
   20.3525   -3.3169    0.0000 C   0  0
   20.3515   -4.1427    0.0000 C   0  0
   21.0673   -4.5516    0.0000 C   0  0
   21.7805   -4.1354    0.0000 C   0  0
   21.7737   -3.3061    0.0000 C   0  0
   21.0574   -2.9011    0.0000 C   0  0
   22.4846   -2.8874    0.0000 O   0  0
   23.2026   -3.2938    0.0000 C   0  0
   22.4977   -4.5432    0.0000 O   0  0
   22.5030   -5.3682    0.0000 C   0  0
   16.0789   -4.1597    0.0000 C   0  0
   16.0808   -3.3350    0.0000 C   0  0
   15.3668   -2.9233    0.0000 C   0  0
   14.6517   -3.3365    0.0000 C   0  0
   14.6551   -4.1657    0.0000 C   0  0
   15.3697   -4.5738    0.0000 C   0  0
   15.3664   -2.0983    0.0000 C   0  0
   13.9425   -4.5814    0.0000 F   0  0
  1  2  2  0
  2  3  1  0
  3  4  2  0
  4  5  1  0
  5  6  2  0
  6  1  1  0
  5  7  1  0
  7  8  2  0
  7  9  1  0
  4 10  1  0
 10 11  2  0
 11 12  1  0
 12 13  2  0
 13 14  1  0
 14 15  2  0
 15 10  1  0
  9 16  1  0
 16 17  1  0
 17 18  2  0
 18 19  1  0
 19 20  2  0
 20 21  1  0
 21 22  2  0
 22 17  1  0
 21 23  1  0
 23 24  1  0
 20 25  1  0
 25 26  1  0
  1 27  1  0
 27 28  2  0
 28 29  1  0
 29 30  2  0
 30 31  1  0
 31 32  2  0
 32 27  1  0
 29 33  1  0
 31 34  1  0
M  END
> <chembl_id>
CHEMBL3099894

$$$$

  SciTegic04091415032D

 33 36  0  0  0  0            999 V2000
   18.5399  -12.6343    0.0000 C   0  0
   18.5363  -13.4596    0.0000 C   0  0
   19.2506  -13.8709    0.0000 N   0  0
   19.9654  -13.4573    0.0000 C   0  0
   19.9615  -12.6280    0.0000 C   0  0
   19.2466  -12.2204    0.0000 C   0  0
   20.6738  -12.2119    0.0000 C   0  0
   21.3904  -12.6207    0.0000 O   0  0
   20.6697  -11.3869    0.0000 N   0  0
   20.6811  -13.8677    0.0000 C   0  0
   20.6792  -14.6930    0.0000 C   0  0
   21.3939  -15.1033    0.0000 N   0  0
   22.1082  -14.6888    0.0000 C   0  0
   22.1032  -13.8594    0.0000 C   0  0
   21.3878  -13.4528    0.0000 C   0  0
   21.3820  -10.9707    0.0000 C   0  0
   22.0986  -11.3796    0.0000 C   0  0
   22.0976  -12.2054    0.0000 C   0  0
   22.8134  -12.6142    0.0000 C   0  0
   23.5268  -12.1980    0.0000 C   0  0
   23.5198  -11.3688    0.0000 C   0  0
   22.8035  -10.9637    0.0000 C   0  0
   24.2307  -10.9501    0.0000 O   0  0
   24.9487  -11.3565    0.0000 C   0  0
   24.2439  -12.6059    0.0000 O   0  0
   24.2491  -13.4309    0.0000 C   0  0
   17.8251  -12.2224    0.0000 C   0  0
   17.8268  -11.3977    0.0000 C   0  0
   17.1128  -10.9860    0.0000 C   0  0
   16.3978  -11.3992    0.0000 C   0  0
   16.4012  -12.2284    0.0000 C   0  0
   17.1158  -12.6365    0.0000 C   0  0
   15.6885  -12.6441    0.0000 Cl  0  0
  1  2  2  0
  2  3  1  0
  3  4  2  0
  4  5  1  0
  5  6  2  0
  6  1  1  0
  5  7  1  0
  7  8  2  0
  7  9  1  0
  4 10  1  0
 10 11  2  0
 11 12  1  0
 12 13  2  0
 13 14  1  0
 14 15  2  0
 15 10  1  0
  9 16  1  0
 16 17  1  0
 17 18  2  0
 18 19  1  0
 19 20  2  0
 20 21  1  0
 21 22  2  0
 22 17  1  0
 21 23  1  0
 23 24  1  0
 20 25  1  0
 25 26  1  0
  1 27  1  0
 27 28  2  0
 28 29  1  0
 29 30  2  0
 30 31  1  0
 31 32  2  0
 32 27  1  0
 31 33  1  0
M  END
> <chembl_id>
CHEMBL3099897

$$$$

  SciTegic12231509382D

 34 37  0  0  0  0            999 V2000
    8.0317   -9.2116    0.0000 C   0  0
   13.0279  -12.9158    0.0000 N   0  0
    8.7498  -10.4489    0.0000 C   0  0
   13.7316  -10.0180    0.0000 C   0  0
   13.0218  -11.2653    0.0000 C   0  0
   12.3078  -10.0243    0.0000 C   0  0
   15.1538   -9.1812    0.0000 C   0  0
    8.0351  -10.0409    0.0000 C   0  0
    8.7468   -8.7984    0.0000 C   0  0
   15.8647   -8.7626    0.0000 O   0  0
    7.3225  -10.4565    0.0000 Cl  0  0
   14.4375   -8.7762    0.0000 C   0  0
   15.8831  -11.2434    0.0000 C   0  0
    9.4608   -9.2102    0.0000 C   0  0
   14.4473  -10.4267    0.0000 C   0  0
   15.1606  -10.0105    0.0000 C   0  0
   16.5827   -9.1689    0.0000 C   0  0
   13.7325   -9.1920    0.0000 C   0  0
   11.5994  -11.2697    0.0000 C   0  0
   12.3151  -11.6801    0.0000 C   0  0
   11.5954  -10.4405    0.0000 C   0  0
   13.7371  -11.6719    0.0000 C   0  0
   12.3130  -12.5054    0.0000 C   0  0
   10.8806  -10.0329    0.0000 C   0  0
    9.4590  -10.0349    0.0000 C   0  0
   12.3035   -9.1993    0.0000 N   0  0
   10.8846  -11.6834    0.0000 N   0  0
   13.0160   -8.7832    0.0000 C   0  0
   10.1739  -10.4467    0.0000 C   0  0
   13.0244  -10.4332    0.0000 O   0  0
   10.1703  -11.2720    0.0000 C   0  0
   13.7422  -12.5012    0.0000 C   0  0
    8.7464   -7.9734    0.0000 Cl  0  0
   15.8778  -10.4184    0.0000 O   0  0
  1  8  1  0
 25 14  2  0
 18  4  2  0
  9 33  1  0
  5 20  1  0
 10 17  1  0
 12 18  1  0
 16 34  1  0
 19 21  1  0
 23  2  1  0
 27 19  2  0
 22  5  2  0
 26 28  1  0
  4 15  1  0
 32 22  1  0
 21  6  1  0
  7 10  1  0
 16  7  1  0
  6 30  2  0
 19 20  1  0
 24 29  1  0
  3 25  1  0
  8 11  1  0
  8  3  2  0
  7 12  2  0
 20 23  2  0
 15 16  2  0
  2 32  2  0
 31 27  1  0
 28 18  1  0
 34 13  1  0
  6 26  1  0
 29 25  1  0
 29 31  2  0
 21 24  2  0
  9  1  2  0
 14  9  1  0
M  END
> <chembl_id>
CHEMBL3099899

$$$$

  SciTegic04091415032D

 34 37  0  0  0  0            999 V2000
   30.3484   -4.6425    0.0000 C   0  0
   30.3448   -5.4678    0.0000 C   0  0
   31.0592   -5.8791    0.0000 N   0  0
   31.7739   -5.4654    0.0000 C   0  0
   31.7700   -4.6362    0.0000 C   0  0
   31.0551   -4.2286    0.0000 C   0  0
   32.4824   -4.2200    0.0000 C   0  0
   33.1990   -4.6289    0.0000 O   0  0
   32.4781   -3.3951    0.0000 N   0  0
   32.4896   -5.8759    0.0000 C   0  0
   32.4876   -6.7012    0.0000 C   0  0
   33.2025   -7.1115    0.0000 N   0  0
   33.9168   -6.6969    0.0000 C   0  0
   33.9117   -5.8676    0.0000 C   0  0
   33.1962   -5.4611    0.0000 C   0  0
   33.1905   -2.9789    0.0000 C   0  0
   33.9071   -3.3877    0.0000 C   0  0
   33.9062   -4.2136    0.0000 C   0  0
   34.6218   -4.6224    0.0000 C   0  0
   35.3352   -4.2063    0.0000 C   0  0
   35.3283   -3.3770    0.0000 C   0  0
   34.6121   -2.9720    0.0000 C   0  0
   36.0393   -2.9583    0.0000 O   0  0
   36.7573   -3.3647    0.0000 C   0  0
   36.0523   -4.6141    0.0000 O   0  0
   36.0577   -5.4392    0.0000 C   0  0
   29.6336   -4.2306    0.0000 C   0  0
   29.6354   -3.4059    0.0000 C   0  0
   28.9214   -2.9941    0.0000 C   0  0
   28.2062   -3.4073    0.0000 C   0  0
   28.2097   -4.2367    0.0000 C   0  0
   28.9242   -4.6446    0.0000 C   0  0
   27.4970   -4.6523    0.0000 F   0  0
   28.9210   -2.1692    0.0000 F   0  0
  1  2  2  0
  2  3  1  0
  3  4  2  0
  4  5  1  0
  5  6  2  0
  6  1  1  0
  5  7  1  0
  7  8  2  0
  7  9  1  0
  4 10  1  0
 10 11  2  0
 11 12  1  0
 12 13  2  0
 13 14  1  0
 14 15  2  0
 15 10  1  0
  9 16  1  0
 16 17  1  0
 17 18  2  0
 18 19  1  0
 19 20  2  0
 20 21  1  0
 21 22  2  0
 22 17  1  0
 21 23  1  0
 23 24  1  0
 20 25  1  0
 25 26  1  0
  1 27  1  0
 27 28  2  0
 28 29  1  0
 29 30  2  0
 30 31  1  0
 31 32  2  0
 32 27  1  0
 31 33  1  0
 29 34  1  0
M  END
> <chembl_id>
CHEMBL3099895

$$$$

  SciTegic05191616112D

 35 37  0  0  0  0            999 V2000
    8.0317   -9.2116    0.0000 C   0  0
   13.0279  -12.9158    0.0000 N   0  0
    8.7498  -10.4489    0.0000 C   0  0
   13.7316  -10.0180    0.0000 C   0  0
   13.0218  -11.2653    0.0000 C   0  0
   12.3078  -10.0243    0.0000 C   0  0
   15.1538   -9.1812    0.0000 C   0  0
    8.0351  -10.0409    0.0000 C   0  0
    8.7468   -8.7984    0.0000 C   0  0
   15.8647   -8.7626    0.0000 O   0  0
    7.3225  -10.4565    0.0000 Cl  0  0
   14.4375   -8.7762    0.0000 C   0  0
   15.8831  -11.2434    0.0000 C   0  0
    9.4608   -9.2102    0.0000 C   0  0
   14.4473  -10.4267    0.0000 C   0  0
   15.1606  -10.0105    0.0000 C   0  0
   16.5827   -9.1689    0.0000 C   0  0
   13.7325   -9.1920    0.0000 C   0  0
   11.5994  -11.2697    0.0000 C   0  0
   12.3151  -11.6801    0.0000 C   0  0
   11.5954  -10.4405    0.0000 C   0  0
   13.7371  -11.6719    0.0000 C   0  0
   12.3130  -12.5054    0.0000 C   0  0
   10.8806  -10.0329    0.0000 C   0  0
    9.4590  -10.0349    0.0000 C   0  0
   12.3035   -9.1993    0.0000 N   0  0
   10.8846  -11.6834    0.0000 N   0  0
   13.0160   -8.7832    0.0000 C   0  0
   10.1739  -10.4467    0.0000 C   0  0
   13.0244  -10.4332    0.0000 O   0  0
   10.1703  -11.2720    0.0000 C   0  0
   13.7422  -12.5012    0.0000 C   0  0
    8.7464   -7.9734    0.0000 Cl  0  0
   15.8778  -10.4184    0.0000 O   0  0
   16.3191  -12.7119    0.0000 Cl  0  0
  1  8  1  0
 25 14  2  0
 18  4  2  0
  9 33  1  0
  5 20  1  0
 10 17  1  0
 12 18  1  0
 16 34  1  0
 19 21  1  0
 23  2  1  0
 27 19  2  0
 22  5  2  0
 26 28  1  0
  4 15  1  0
 32 22  1  0
 21  6  1  0
  7 10  1  0
 16  7  1  0
  6 30  2  0
 19 20  1  0
 24 29  1  0
  3 25  1  0
  8 11  1  0
  8  3  2  0
  7 12  2  0
 20 23  2  0
 15 16  2  0
  2 32  2  0
 31 27  1  0
 28 18  1  0
 34 13  1  0
  6 26  1  0
 29 25  1  0
 29 31  2  0
 21 24  2  0
  9  1  2  0
 14  9  1  0
M  END
> <chembl_id>
CHEMBL3099978

$$$$

  SciTegic04091415032D

 34 38  0  0  0  0            999 V2000
   10.4652   -4.8999    0.0000 C   0  0
   10.4640   -5.7273    0.0000 C   0  0
   11.1788   -6.1402    0.0000 C   0  0
   11.8952   -5.7268    0.0000 C   0  0
   11.8924   -4.8963    0.0000 C   0  0
   11.1770   -4.4871    0.0000 C   0  0
    9.7492   -6.1393    0.0000 C   0  0
   11.1746   -3.6621    0.0000 C   0  0
   12.6104   -6.1382    0.0000 C   0  0
   12.6067   -6.9636    0.0000 C   0  0
   13.3210   -7.3749    0.0000 N   0  0
   14.0359   -6.9611    0.0000 C   0  0
   14.0319   -6.1319    0.0000 C   0  0
   13.3171   -5.7243    0.0000 C   0  0
   14.7443   -5.7158    0.0000 C   0  0
   15.4608   -6.1246    0.0000 O   0  0
   14.7400   -4.8908    0.0000 N   0  0
   14.7515   -7.3716    0.0000 C   0  0
   14.7495   -8.1968    0.0000 C   0  0
   15.4644   -8.6072    0.0000 N   0  0
   16.1786   -8.1926    0.0000 C   0  0
   16.1736   -7.3634    0.0000 C   0  0
   15.4581   -6.9567    0.0000 C   0  0
   15.4524   -4.4746    0.0000 C   0  0
   15.4482   -3.6496    0.0000 C   0  0
   16.1608   -3.2394    0.0000 C   0  0
   14.7251   -2.4261    0.0000 C   0  0
   14.7325   -3.2489    0.0000 C   0  0
   15.4398   -2.0056    0.0000 C   0  0
   16.1534   -2.4150    0.0000 C   0  0
   16.7634   -1.8629    0.0000 O   0  0
   16.4268   -1.1128    0.0000 C   0  0
   15.6088   -1.2079    0.0000 O   0  0
   14.0235   -4.4819    0.0000 C   0  0
  1  2  2  0
  2  3  1  0
  3  4  2  0
  4  5  1  0
  5  6  2  0
  6  1  1  0
  2  7  1  0
  6  8  1  0
  4  9  1  0
  9 10  2  0
 10 11  1  0
 11 12  2  0
 12 13  1  0
 13 14  2  0
 14  9  1  0
 13 15  1  0
 15 16  2  0
 15 17  1  0
 12 18  1  0
 18 19  2  0
 19 20  1  0
 20 21  2  0
 21 22  1  0
 22 23  2  0
 23 18  1  0
 17 24  1  0
 24 25  1  0
 25 26  2  0
 26 30  1  0
 29 27  1  0
 27 28  2  0
 28 25  1  0
 29 30  2  0
 30 31  1  0
 31 32  1  0
 32 33  1  0
 33 29  1  0
 17 34  1  0
M  END
> <chembl_id>
CHEMBL3099885

$$$$
