
  SciTegic02271515092D

 33 36  0  0  0  0            999 V2000
    4.7284  -27.2108    0.0000 C   0  0
    4.7272  -28.0303    0.0000 N   0  0
    5.4353  -28.4393    0.0000 N   0  0
    6.1449  -28.0298    0.0000 C   0  0
    6.1421  -27.2072    0.0000 C   0  0
    5.4335  -26.8019    0.0000 C   0  0
    4.0206  -26.8024    0.0000 C   0  0
    6.8483  -26.7959    0.0000 C   0  0
    6.8533  -28.4373    0.0000 C   0  0
    6.8497  -29.2549    0.0000 C   0  0
    7.5572  -29.6623    0.0000 C   0  0
    8.2653  -29.2525    0.0000 C   0  0
    8.2614  -28.4311    0.0000 C   0  0
    7.5533  -28.0274    0.0000 C   0  0
    4.0238  -25.9842    0.0000 C   0  0
    3.3168  -25.5759    0.0000 N   0  0
    2.6082  -25.9847    0.0000 C   0  0
    2.6111  -26.8061    0.0000 C   0  0
    3.3186  -27.2108    0.0000 C   0  0
    7.5575  -27.2018    0.0000 O   0  0
    6.8452  -25.9787    0.0000 N   0  0
    7.5514  -25.5675    0.0000 C   0  0
    8.2606  -25.9734    0.0000 C   0  0
    8.2589  -26.7909    0.0000 C   0  0
    8.9673  -27.1968    0.0000 C   0  0
    9.6745  -26.7855    0.0000 C   0  0
    9.6687  -25.9641    0.0000 C   0  0
    8.9598  -25.5619    0.0000 N   0  0
   10.3735  -25.5503    0.0000 O   0  0
   10.3842  -27.1904    0.0000 O   0  0
   11.0841  -25.9537    0.0000 C   0  0
   11.0899  -26.7782    0.0000 C   0  0
    1.9049  -27.2174    0.0000 C   0  0
  1  2  2  0
  2  3  1  0
  3  4  2  0
  4  5  1  0
  5  6  2  0
  6  1  1  0
  1  7  1  0
  5  8  1  0
  4  9  1  0
  9 10  2  0
 10 11  1  0
 11 12  2  0
 12 13  1  0
 13 14  2  0
 14  9  1  0
  7 15  2  0
 15 16  1  0
 16 17  2  0
 17 18  1  0
 18 19  2  0
 19  7  1  0
  8 20  2  0
  8 21  1  0
 21 22  1  0
 22 23  1  0
 23 24  2  0
 24 25  1  0
 25 26  2  0
 26 27  1  0
 27 28  2  0
 28 23  1  0
 27 29  1  0
 26 30  1  0
 29 31  1  0
 30 32  1  0
 18 33  1  0
M  END
> <chembl_id>
CHEMBL3338851

$$$$

  SciTegic02271515092D

 33 36  0  0  0  0            999 V2000
   17.3825  -16.3232    0.0000 C   0  0
   17.3813  -17.1427    0.0000 N   0  0
   18.0894  -17.5517    0.0000 C   0  0
   18.7990  -17.1422    0.0000 C   0  0
   18.7962  -16.3196    0.0000 C   0  0
   18.0876  -15.9143    0.0000 C   0  0
   16.6747  -15.9147    0.0000 C   0  0
   19.5024  -15.9083    0.0000 C   0  0
   19.5074  -17.5497    0.0000 C   0  0
   19.5038  -18.3672    0.0000 N   0  0
   20.2113  -18.7746    0.0000 C   0  0
   20.9194  -18.3649    0.0000 C   0  0
   20.9155  -17.5435    0.0000 N   0  0
   20.2074  -17.1398    0.0000 C   0  0
   16.6779  -15.0966    0.0000 C   0  0
   15.9709  -14.6883    0.0000 N   0  0
   15.2623  -15.0971    0.0000 C   0  0
   15.2651  -15.9185    0.0000 C   0  0
   15.9727  -16.3231    0.0000 C   0  0
   20.2116  -16.3142    0.0000 O   0  0
   19.4993  -15.0911    0.0000 N   0  0
   20.2055  -14.6798    0.0000 C   0  0
   20.9147  -15.0858    0.0000 C   0  0
   20.9130  -15.9033    0.0000 C   0  0
   21.6214  -16.3091    0.0000 C   0  0
   22.3285  -15.8978    0.0000 C   0  0
   22.3228  -15.0764    0.0000 C   0  0
   21.6139  -14.6743    0.0000 N   0  0
   23.0275  -14.6627    0.0000 O   0  0
   23.0383  -16.3028    0.0000 O   0  0
   23.7382  -15.0661    0.0000 C   0  0
   23.7439  -15.8906    0.0000 C   0  0
   14.5590  -16.3297    0.0000 C   0  0
  1  2  2  0
  2  3  1  0
  3  4  2  0
  4  5  1  0
  5  6  2  0
  6  1  1  0
  1  7  1  0
  5  8  1  0
  4  9  1  0
  9 10  2  0
 10 11  1  0
 11 12  2  0
 12 13  1  0
 13 14  2  0
 14  9  1  0
  7 15  2  0
 15 16  1  0
 16 17  2  0
 17 18  1  0
 18 19  2  0
 19  7  1  0
  8 20  2  0
  8 21  1  0
 21 22  1  0
 22 23  1  0
 23 24  2  0
 24 25  1  0
 25 26  2  0
 26 27  1  0
 27 28  2  0
 28 23  1  0
 27 29  1  0
 26 30  1  0
 29 31  1  0
 30 32  1  0
 18 33  1  0
M  END
> <chembl_id>
CHEMBL3338858

$$$$

  SciTegic02271515092D

 33 36  0  0  0  0            999 V2000
   17.2050  -18.7665    0.0000 C   0  0
   17.2039  -19.5860    0.0000 N   0  0
   17.9119  -19.9950    0.0000 C   0  0
   18.6216  -19.5855    0.0000 C   0  0
   18.6187  -18.7629    0.0000 C   0  0
   17.9101  -18.3576    0.0000 N   0  0
   16.4972  -18.3580    0.0000 C   0  0
   19.3249  -18.3516    0.0000 C   0  0
   19.3299  -19.9930    0.0000 C   0  0
   19.3263  -20.8106    0.0000 C   0  0
   20.0339  -21.2180    0.0000 C   0  0
   20.7419  -20.8082    0.0000 C   0  0
   20.7380  -19.9868    0.0000 C   0  0
   20.0299  -19.5831    0.0000 C   0  0
   16.5004  -17.5399    0.0000 C   0  0
   15.7934  -17.1316    0.0000 N   0  0
   15.0848  -17.5404    0.0000 C   0  0
   15.0877  -18.3618    0.0000 C   0  0
   15.7952  -18.7665    0.0000 C   0  0
   20.0341  -18.7575    0.0000 O   0  0
   19.3218  -17.5344    0.0000 N   0  0
   20.0280  -17.1232    0.0000 C   0  0
   20.7372  -17.5291    0.0000 C   0  0
   20.7355  -18.3466    0.0000 C   0  0
   21.4439  -18.7525    0.0000 C   0  0
   22.1511  -18.3411    0.0000 C   0  0
   22.1454  -17.5197    0.0000 C   0  0
   21.4364  -17.1176    0.0000 N   0  0
   22.8501  -17.1060    0.0000 O   0  0
   22.8609  -18.7461    0.0000 O   0  0
   23.5607  -17.5094    0.0000 C   0  0
   23.5665  -18.3339    0.0000 C   0  0
   14.3815  -18.7731    0.0000 C   0  0
  1  2  2  0
  2  3  1  0
  3  4  2  0
  4  5  1  0
  5  6  2  0
  6  1  1  0
  1  7  1  0
  5  8  1  0
  4  9  1  0
  9 10  2  0
 10 11  1  0
 11 12  2  0
 12 13  1  0
 13 14  2  0
 14  9  1  0
  7 15  2  0
 15 16  1  0
 16 17  2  0
 17 18  1  0
 18 19  2  0
 19  7  1  0
  8 20  2  0
  8 21  1  0
 21 22  1  0
 22 23  1  0
 23 24  2  0
 24 25  1  0
 25 26  2  0
 26 27  1  0
 27 28  2  0
 28 23  1  0
 27 29  1  0
 26 30  1  0
 29 31  1  0
 30 32  1  0
 18 33  1  0
M  END
> <chembl_id>
CHEMBL3338850

$$$$

  SciTegic02271515092D

 33 36  0  0  0  0            999 V2000
    4.0525  -17.1447    0.0000 C   0  0
    4.0513  -17.9720    0.0000 N   0  0
    4.7661  -18.3849    0.0000 C   0  0
    5.4824  -17.9716    0.0000 C   0  0
    5.4796  -17.1411    0.0000 C   0  0
    4.7643  -16.7319    0.0000 C   0  0
    3.3380  -16.7324    0.0000 C   0  0
    6.1925  -16.7259    0.0000 C   0  0
    6.1976  -18.3829    0.0000 C   0  0
    6.1939  -19.2082    0.0000 N   0  0
    6.9082  -19.6195    0.0000 C   0  0
    7.6230  -19.2058    0.0000 C   0  0
    7.6190  -18.3766    0.0000 C   0  0
    6.9042  -17.9691    0.0000 C   0  0
    3.3412  -15.9066    0.0000 C   0  0
    2.6275  -15.4943    0.0000 N   0  0
    1.9122  -15.9070    0.0000 C   0  0
    1.9150  -16.7362    0.0000 C   0  0
    2.6293  -17.1447    0.0000 C   0  0
    6.9085  -17.1357    0.0000 O   0  0
    6.1894  -15.9010    0.0000 N   0  0
    6.9023  -15.4858    0.0000 C   0  0
    7.6182  -15.8956    0.0000 C   0  0
    7.6165  -16.7208    0.0000 C   0  0
    8.3316  -17.1306    0.0000 C   0  0
    9.0456  -16.7154    0.0000 C   0  0
    9.0397  -15.8862    0.0000 C   0  0
    8.3241  -15.4802    0.0000 N   0  0
    9.7511  -15.4684    0.0000 O   0  0
    9.7620  -17.1242    0.0000 O   0  0
   10.4685  -15.8758    0.0000 C   0  0
   10.4744  -16.7081    0.0000 C   0  0
    1.2022  -17.1514    0.0000 C   0  0
  1  2  2  0
  2  3  1  0
  3  4  2  0
  4  5  1  0
  5  6  2  0
  6  1  1  0
  1  7  1  0
  5  8  1  0
  4  9  1  0
  9 10  2  0
 10 11  1  0
 11 12  2  0
 12 13  1  0
 13 14  2  0
 14  9  1  0
  7 15  2  0
 15 16  1  0
 16 17  2  0
 17 18  1  0
 18 19  2  0
 19  7  1  0
  8 20  2  0
  8 21  1  0
 21 22  1  0
 22 23  1  0
 23 24  2  0
 24 25  1  0
 25 26  2  0
 26 27  1  0
 27 28  2  0
 28 23  1  0
 27 29  1  0
 26 30  1  0
 29 31  1  0
 30 32  1  0
 18 33  1  0
M  END
> <chembl_id>
CHEMBL3338857

$$$$

  SciTegic02271515092D

 33 36  0  0  0  0            999 V2000
    3.1270  -23.7398    0.0000 C   0  0
    3.1259  -24.5593    0.0000 N   0  0
    3.8339  -24.9683    0.0000 C   0  0
    4.5436  -24.5588    0.0000 C   0  0
    4.5408  -23.7362    0.0000 C   0  0
    3.8321  -23.3309    0.0000 C   0  0
    2.4192  -23.3314    0.0000 C   0  0
    5.2469  -23.3249    0.0000 C   0  0
    5.2519  -24.9663    0.0000 C   0  0
    5.2484  -25.7839    0.0000 C   0  0
    5.9559  -26.1913    0.0000 N   0  0
    6.6639  -25.7815    0.0000 N   0  0
    6.6600  -24.9601    0.0000 C   0  0
    5.9519  -24.5564    0.0000 C   0  0
    2.4224  -22.5132    0.0000 C   0  0
    1.7155  -22.1049    0.0000 N   0  0
    1.0069  -22.5137    0.0000 C   0  0
    1.0097  -23.3351    0.0000 C   0  0
    1.7172  -23.7398    0.0000 C   0  0
    5.9562  -23.7308    0.0000 O   0  0
    5.2438  -22.5077    0.0000 N   0  0
    5.9500  -22.0965    0.0000 C   0  0
    6.6592  -22.5024    0.0000 C   0  0
    6.6575  -23.3199    0.0000 C   0  0
    7.3660  -23.7258    0.0000 C   0  0
    8.0731  -23.3145    0.0000 C   0  0
    8.0674  -22.4931    0.0000 C   0  0
    7.3584  -22.0909    0.0000 N   0  0
    8.7721  -22.0793    0.0000 O   0  0
    8.7829  -23.7194    0.0000 O   0  0
    9.4828  -22.4827    0.0000 C   0  0
    9.4885  -23.3072    0.0000 C   0  0
    0.3035  -23.7464    0.0000 C   0  0
  1  2  2  0
  2  3  1  0
  3  4  2  0
  4  5  1  0
  5  6  2  0
  6  1  1  0
  1  7  1  0
  5  8  1  0
  4  9  1  0
  9 10  2  0
 10 11  1  0
 11 12  2  0
 12 13  1  0
 13 14  2  0
 14  9  1  0
  7 15  2  0
 15 16  1  0
 16 17  2  0
 17 18  1  0
 18 19  2  0
 19  7  1  0
  8 20  2  0
  8 21  1  0
 21 22  1  0
 22 23  1  0
 23 24  2  0
 24 25  1  0
 25 26  2  0
 26 27  1  0
 27 28  2  0
 28 23  1  0
 27 29  1  0
 26 30  1  0
 29 31  1  0
 30 32  1  0
 18 33  1  0
M  END
> <chembl_id>
CHEMBL3338859

$$$$

  SciTegic02271515092D

 33 36  0  0  0  0            999 V2000
    3.6801   -4.0735    0.0000 C   0  0
    3.6789   -4.8931    0.0000 N   0  0
    4.3870   -5.3020    0.0000 C   0  0
    5.0966   -4.8926    0.0000 C   0  0
    5.0938   -4.0699    0.0000 C   0  0
    4.3852   -3.6647    0.0000 C   0  0
    2.9723   -3.6651    0.0000 C   0  0
    5.8000   -3.6587    0.0000 C   0  0
    5.8050   -5.3001    0.0000 N   0  0
    5.8014   -6.1176    0.0000 C   0  0
    6.5089   -6.5250    0.0000 C   0  0
    7.2170   -6.1153    0.0000 O   0  0
    7.2131   -5.2939    0.0000 C   0  0
    6.5050   -4.8902    0.0000 C   0  0
    2.9755   -2.8470    0.0000 C   0  0
    2.2685   -2.4386    0.0000 N   0  0
    1.5599   -2.8475    0.0000 C   0  0
    1.5627   -3.6689    0.0000 C   0  0
    2.2703   -4.0735    0.0000 C   0  0
    6.5092   -4.0646    0.0000 O   0  0
    5.7969   -2.8415    0.0000 N   0  0
    6.5031   -2.4302    0.0000 C   0  0
    7.2123   -2.8362    0.0000 C   0  0
    7.2106   -3.6537    0.0000 C   0  0
    7.9190   -4.0595    0.0000 C   0  0
    8.6261   -3.6482    0.0000 C   0  0
    8.6204   -2.8268    0.0000 C   0  0
    7.9115   -2.4247    0.0000 N   0  0
    9.3251   -2.4131    0.0000 O   0  0
    9.3359   -4.0532    0.0000 O   0  0
   10.0358   -2.8165    0.0000 C   0  0
   10.0415   -3.6410    0.0000 C   0  0
    0.8566   -4.0801    0.0000 C   0  0
  1  2  2  0
  2  3  1  0
  3  4  2  0
  4  5  1  0
  5  6  2  0
  6  1  1  0
  1  7  1  0
  5  8  1  0
  4  9  1  0
  9 10  1  0
 10 11  1  0
 11 12  1  0
 12 13  1  0
 13 14  1  0
 14  9  1  0
  7 15  2  0
 15 16  1  0
 16 17  2  0
 17 18  1  0
 18 19  2  0
 19  7  1  0
  8 20  2  0
  8 21  1  0
 21 22  1  0
 22 23  1  0
 23 24  2  0
 24 25  1  0
 25 26  2  0
 26 27  1  0
 27 28  2  0
 28 23  1  0
 27 29  1  0
 26 30  1  0
 29 31  1  0
 30 32  1  0
 18 33  1  0
M  END
> <chembl_id>
CHEMBL3338861

$$$$

  SciTegic02271515092D

 33 36  0  0  0  0            999 V2000
   16.2401  -17.8539    0.0000 C   0  0
   16.2389  -18.6813    0.0000 C   0  0
   16.9537  -19.0941    0.0000 N   0  0
   17.6702  -18.6808    0.0000 C   0  0
   17.6674  -17.8503    0.0000 C   0  0
   16.9519  -17.4412    0.0000 C   0  0
   15.5255  -17.4416    0.0000 C   0  0
   18.3802  -17.4352    0.0000 C   0  0
   18.3852  -19.0922    0.0000 C   0  0
   18.3817  -19.9175    0.0000 C   0  0
   19.0960  -20.3288    0.0000 C   0  0
   19.8107  -19.9152    0.0000 C   0  0
   19.8068  -19.0860    0.0000 C   0  0
   19.0919  -18.6784    0.0000 N   0  0
   15.5287  -16.6157    0.0000 C   0  0
   14.8151  -16.2034    0.0000 N   0  0
   14.0997  -16.6162    0.0000 C   0  0
   14.1025  -17.4455    0.0000 C   0  0
   14.8168  -17.8539    0.0000 C   0  0
   13.3896  -17.8606    0.0000 Cl  0  0
   19.0963  -17.8449    0.0000 O   0  0
   18.3771  -16.6102    0.0000 N   0  0
   19.0900  -16.1949    0.0000 C   0  0
   19.8060  -16.6048    0.0000 C   0  0
   19.8043  -17.4301    0.0000 C   0  0
   20.5195  -17.8398    0.0000 C   0  0
   21.2334  -17.4246    0.0000 C   0  0
   21.2276  -16.5953    0.0000 C   0  0
   20.5118  -16.1894    0.0000 N   0  0
   21.9390  -16.1777    0.0000 O   0  0
   21.9499  -17.8334    0.0000 O   0  0
   22.6565  -16.5849    0.0000 C   0  0
   22.6623  -17.4173    0.0000 C   0  0
  1  2  2  0
  2  3  1  0
  3  4  2  0
  4  5  1  0
  5  6  2  0
  6  1  1  0
  1  7  1  0
  5  8  1  0
  4  9  1  0
  9 10  2  0
 10 11  1  0
 11 12  2  0
 12 13  1  0
 13 14  2  0
 14  9  1  0
  7 15  2  0
 15 16  1  0
 16 17  2  0
 17 18  1  0
 18 19  2  0
 19  7  1  0
 18 20  1  0
  8 21  2  0
  8 22  1  0
 22 23  1  0
 23 24  1  0
 24 25  2  0
 25 26  1  0
 26 27  2  0
 27 28  1  0
 28 29  2  0
 29 24  1  0
 28 30  1  0
 27 31  1  0
 30 32  1  0
 31 33  1  0
M  END
> <chembl_id>
CHEMBL3338866

$$$$

  SciTegic02271515092D

 34 37  0  0  0  0            999 V2000
   16.9780   -9.5834    0.0000 C   0  0
   16.9769  -10.4029    0.0000 N   0  0
   17.6849  -10.8119    0.0000 C   0  0
   18.3946  -10.4024    0.0000 C   0  0
   18.3917   -9.5798    0.0000 C   0  0
   17.6831   -9.1745    0.0000 C   0  0
   16.2702   -9.1750    0.0000 C   0  0
   19.0979   -9.1685    0.0000 C   0  0
   19.1029  -10.8099    0.0000 C   0  0
   19.0993  -11.6275    0.0000 C   0  0
   19.8069  -12.0349    0.0000 C   0  0
   20.5149  -11.6251    0.0000 C   0  0
   20.5110  -10.8037    0.0000 C   0  0
   19.8029  -10.4000    0.0000 C   0  0
   16.2734   -8.3568    0.0000 C   0  0
   15.5664   -7.9485    0.0000 N   0  0
   14.8578   -8.3573    0.0000 C   0  0
   14.8607   -9.1787    0.0000 C   0  0
   15.5682   -9.5834    0.0000 C   0  0
   19.8071   -9.5745    0.0000 O   0  0
   19.0948   -8.3513    0.0000 N   0  0
   19.8010   -7.9401    0.0000 C   0  0
   20.5102   -8.3460    0.0000 C   0  0
   20.5085   -9.1635    0.0000 C   0  0
   21.2169   -9.5694    0.0000 C   0  0
   21.9241   -9.1581    0.0000 C   0  0
   21.9184   -8.3367    0.0000 C   0  0
   21.2094   -7.9345    0.0000 N   0  0
   22.6231   -7.9229    0.0000 O   0  0
   22.6339   -9.5630    0.0000 O   0  0
   23.3337   -8.3263    0.0000 C   0  0
   23.3395   -9.1508    0.0000 C   0  0
   14.1545   -9.5900    0.0000 C   0  0
   19.8077  -12.8521    0.0000 F   0  0
  1  2  2  0
  2  3  1  0
  3  4  2  0
  4  5  1  0
  5  6  2  0
  6  1  1  0
  1  7  1  0
  5  8  1  0
  4  9  1  0
  9 10  2  0
 10 11  1  0
 11 12  2  0
 12 13  1  0
 13 14  2  0
 14  9  1  0
  7 15  2  0
 15 16  1  0
 16 17  2  0
 17 18  1  0
 18 19  2  0
 19  7  1  0
  8 20  2  0
  8 21  1  0
 21 22  1  0
 22 23  1  0
 23 24  2  0
 24 25  1  0
 25 26  2  0
 26 27  1  0
 27 28  2  0
 28 23  1  0
 27 29  1  0
 26 30  1  0
 29 31  1  0
 30 32  1  0
 18 33  1  0
 11 34  1  0
M  END
> <chembl_id>
CHEMBL3338856

$$$$

  SciTegic02271515092D

 32 35  0  0  0  0            999 V2000
    4.3157  -18.0772    0.0000 C   0  0
    4.3145  -18.8968    0.0000 N   0  0
    5.0226  -19.3057    0.0000 C   0  0
    5.7322  -18.8963    0.0000 C   0  0
    5.7294  -18.0736    0.0000 C   0  0
    5.0208  -17.6684    0.0000 C   0  0
    3.6079  -17.6688    0.0000 C   0  0
    6.4356  -17.6624    0.0000 C   0  0
    6.4406  -19.3038    0.0000 C   0  0
    3.6111  -16.8507    0.0000 C   0  0
    2.9041  -16.4423    0.0000 N   0  0
    2.1955  -16.8511    0.0000 C   0  0
    2.1983  -17.6726    0.0000 C   0  0
    2.9059  -18.0772    0.0000 C   0  0
    7.1448  -18.0683    0.0000 O   0  0
    6.4325  -16.8452    0.0000 N   0  0
    7.1386  -16.4339    0.0000 C   0  0
    7.8479  -16.8398    0.0000 C   0  0
    7.8462  -17.6574    0.0000 C   0  0
    8.5546  -18.0632    0.0000 C   0  0
    9.2617  -17.6519    0.0000 C   0  0
    9.2560  -16.8305    0.0000 C   0  0
    8.5470  -16.4283    0.0000 N   0  0
    9.9607  -16.4167    0.0000 O   0  0
    9.9715  -18.0569    0.0000 O   0  0
   10.6714  -16.8202    0.0000 C   0  0
   10.6771  -17.6447    0.0000 C   0  0
    1.4922  -18.0838    0.0000 C   0  0
    6.5278  -20.1139    0.0000 S   0  0
    7.3274  -20.2826    0.0000 C   0  0
    7.7349  -19.5742    0.0000 C   0  0
    7.1871  -18.9678    0.0000 N   0  0
  1  2  2  0
  2  3  1  0
  3  4  2  0
  4  5  1  0
  5  6  2  0
  6  1  1  0
  1  7  1  0
  5  8  1  0
  4  9  1  0
  7 10  2  0
 10 11  1  0
 11 12  2  0
 12 13  1  0
 13 14  2  0
 14  7  1  0
  8 15  2  0
  8 16  1  0
 16 17  1  0
 17 18  1  0
 18 19  2  0
 19 20  1  0
 20 21  2  0
 21 22  1  0
 22 23  2  0
 23 18  1  0
 22 24  1  0
 21 25  1  0
 24 26  1  0
 25 27  1  0
 13 28  1  0
  9 29  1  0
 29 30  1  0
 30 31  2  0
 31 32  1  0
 32  9  2  0
M  END
> <chembl_id>
CHEMBL3338865

$$$$

  SciTegic02271515092D

 33 36  0  0  0  0            999 V2000
    3.7544   -3.2192    0.0000 C   0  0
    3.7532   -4.0387    0.0000 C   0  0
    4.4613   -4.4477    0.0000 N   0  0
    5.1709   -4.0383    0.0000 C   0  0
    5.1681   -3.2156    0.0000 C   0  0
    4.4595   -2.8103    0.0000 C   0  0
    3.0466   -2.8108    0.0000 C   0  0
    5.8743   -2.8043    0.0000 C   0  0
    5.8793   -4.4457    0.0000 C   0  0
    5.8757   -5.2633    0.0000 C   0  0
    6.5832   -5.6707    0.0000 C   0  0
    7.2913   -5.2609    0.0000 C   0  0
    7.2873   -4.4395    0.0000 C   0  0
    6.5793   -4.0358    0.0000 C   0  0
    3.0498   -1.9926    0.0000 C   0  0
    2.3428   -1.5843    0.0000 N   0  0
    1.6342   -1.9931    0.0000 C   0  0
    1.6370   -2.8145    0.0000 C   0  0
    2.3446   -3.2192    0.0000 C   0  0
    0.9309   -3.2258    0.0000 Cl  0  0
    6.5835   -3.2103    0.0000 O   0  0
    5.8712   -1.9872    0.0000 N   0  0
    6.5773   -1.5759    0.0000 C   0  0
    7.2866   -1.9818    0.0000 C   0  0
    7.2849   -2.7993    0.0000 C   0  0
    7.9933   -3.2052    0.0000 C   0  0
    8.7004   -2.7939    0.0000 C   0  0
    8.6947   -1.9725    0.0000 C   0  0
    7.9857   -1.5703    0.0000 N   0  0
    9.3994   -1.5587    0.0000 O   0  0
    9.4102   -3.1989    0.0000 O   0  0
   10.1101   -1.9621    0.0000 C   0  0
   10.1158   -2.7867    0.0000 C   0  0
  1  2  2  0
  2  3  1  0
  3  4  2  0
  4  5  1  0
  5  6  2  0
  6  1  1  0
  1  7  1  0
  5  8  1  0
  4  9  1  0
  9 10  2  0
 10 11  1  0
 11 12  2  0
 12 13  1  0
 13 14  2  0
 14  9  1  0
  7 15  2  0
 15 16  1  0
 16 17  2  0
 17 18  1  0
 18 19  2  0
 19  7  1  0
 18 20  1  0
  8 21  2  0
  8 22  1  0
 22 23  1  0
 23 24  1  0
 24 25  2  0
 25 26  1  0
 26 27  2  0
 27 28  1  0
 28 29  2  0
 29 24  1  0
 28 30  1  0
 27 31  1  0
 30 32  1  0
 31 33  1  0
M  END
> <chembl_id>
CHEMBL3338845

$$$$

  SciTegic02271515092D

 31 34  0  0  0  0            999 V2000
    3.9525  -11.1559    0.0000 C   0  0
    3.9513  -11.9754    0.0000 N   0  0
    4.6594  -12.3844    0.0000 C   0  0
    5.3690  -11.9749    0.0000 C   0  0
    5.3662  -11.1523    0.0000 C   0  0
    4.6576  -10.7470    0.0000 C   0  0
    3.2447  -10.7474    0.0000 C   0  0
    6.0724  -10.7410    0.0000 C   0  0
    6.0774  -12.3824    0.0000 N   0  0
    3.2479   -9.9293    0.0000 C   0  0
    2.5409   -9.5210    0.0000 N   0  0
    1.8323   -9.9298    0.0000 C   0  0
    1.8351  -10.7512    0.0000 C   0  0
    2.5427  -11.1558    0.0000 C   0  0
    6.7816  -11.1469    0.0000 O   0  0
    6.0693   -9.9238    0.0000 N   0  0
    6.7754   -9.5126    0.0000 C   0  0
    7.4847   -9.9185    0.0000 C   0  0
    7.4830  -10.7360    0.0000 C   0  0
    8.1914  -11.1419    0.0000 C   0  0
    8.8985  -10.7305    0.0000 C   0  0
    8.8928   -9.9091    0.0000 C   0  0
    8.1839   -9.5070    0.0000 N   0  0
    9.5975   -9.4954    0.0000 O   0  0
    9.6083  -11.1355    0.0000 O   0  0
   10.3082   -9.8988    0.0000 C   0  0
   10.3139  -10.7233    0.0000 C   0  0
    1.1290  -11.1625    0.0000 C   0  0
    6.2920  -13.1700    0.0000 C   0  0
    7.0810  -12.9573    0.0000 C   0  0
    6.8683  -12.1683    0.0000 C   0  0
  1  2  2  0
  2  3  1  0
  3  4  2  0
  4  5  1  0
  5  6  2  0
  6  1  1  0
  1  7  1  0
  5  8  1  0
  4  9  1  0
  7 10  2  0
 10 11  1  0
 11 12  2  0
 12 13  1  0
 13 14  2  0
 14  7  1  0
  8 15  2  0
  8 16  1  0
 16 17  1  0
 17 18  1  0
 18 19  2  0
 19 20  1  0
 20 21  2  0
 21 22  1  0
 22 23  2  0
 23 18  1  0
 22 24  1  0
 21 25  1  0
 24 26  1  0
 25 27  1  0
 13 28  1  0
  9 29  1  0
 29 30  1  0
 30 31  1  0
 31  9  1  0
M  END
> <chembl_id>
CHEMBL3338863

$$$$

  SciTegic02271515092D

 33 36  0  0  0  0            999 V2000
   16.6437  -10.4171    0.0000 C   0  0
   16.6426  -11.2366    0.0000 N   0  0
   17.3506  -11.6456    0.0000 C   0  0
   18.0603  -11.2362    0.0000 C   0  0
   18.0574  -10.4135    0.0000 C   0  0
   17.3488  -10.0082    0.0000 C   0  0
   15.9359  -10.0087    0.0000 C   0  0
   18.7636  -10.0022    0.0000 C   0  0
   18.7686  -11.6436    0.0000 C   0  0
   15.9391   -9.1905    0.0000 C   0  0
   15.2321   -8.7822    0.0000 N   0  0
   14.5235   -9.1910    0.0000 C   0  0
   14.5264  -10.0124    0.0000 C   0  0
   15.2339  -10.4171    0.0000 C   0  0
   19.4728  -10.4082    0.0000 O   0  0
   18.7605   -9.1850    0.0000 N   0  0
   19.4667   -8.7738    0.0000 C   0  0
   20.1759   -9.1797    0.0000 C   0  0
   20.1742   -9.9972    0.0000 C   0  0
   20.8826  -10.4031    0.0000 C   0  0
   21.5898   -9.9918    0.0000 C   0  0
   21.5841   -9.1704    0.0000 C   0  0
   20.8751   -8.7682    0.0000 N   0  0
   22.2888   -8.7566    0.0000 O   0  0
   22.2996  -10.3967    0.0000 O   0  0
   22.9994   -9.1600    0.0000 C   0  0
   23.0052   -9.9845    0.0000 C   0  0
   13.8202  -10.4237    0.0000 C   0  0
   18.8522  -12.4583    0.0000 C   0  0
   19.6527  -12.6273    0.0000 N   0  0
   20.0596  -11.9173    0.0000 N   0  0
   19.5093  -11.3119    0.0000 C   0  0
   20.8720  -11.8286    0.0000 C   0  0
  1  2  2  0
  2  3  1  0
  3  4  2  0
  4  5  1  0
  5  6  2  0
  6  1  1  0
  1  7  1  0
  5  8  1  0
  4  9  1  0
  7 10  2  0
 10 11  1  0
 11 12  2  0
 12 13  1  0
 13 14  2  0
 14  7  1  0
  8 15  2  0
  8 16  1  0
 16 17  1  0
 17 18  1  0
 18 19  2  0
 19 20  1  0
 20 21  2  0
 21 22  1  0
 22 23  2  0
 23 18  1  0
 22 24  1  0
 21 25  1  0
 24 26  1  0
 25 27  1  0
 13 28  1  0
 29 30  2  0
  9 29  1  0
 30 31  1  0
 31 32  1  0
 32  9  2  0
 31 33  1  0
M  END
> <chembl_id>
CHEMBL3338864

$$$$

  SciTegic02271515092D

 33 36  0  0  0  0            999 V2000
    4.4354  -19.0884    0.0000 C   0  0
    4.4342  -19.9079    0.0000 C   0  0
    5.1423  -20.3169    0.0000 N   0  0
    5.8519  -19.9075    0.0000 C   0  0
    5.8491  -19.0848    0.0000 C   0  0
    5.1405  -18.6795    0.0000 N   0  0
    3.7275  -18.6800    0.0000 C   0  0
    6.5552  -18.6735    0.0000 C   0  0
    6.5603  -20.3149    0.0000 C   0  0
    6.5567  -21.1325    0.0000 C   0  0
    7.2642  -21.5399    0.0000 C   0  0
    7.9723  -21.1301    0.0000 C   0  0
    7.9683  -20.3087    0.0000 C   0  0
    7.2603  -19.9050    0.0000 C   0  0
    3.7308  -17.8618    0.0000 C   0  0
    3.0238  -17.4535    0.0000 N   0  0
    2.3152  -17.8623    0.0000 C   0  0
    2.3180  -18.6837    0.0000 C   0  0
    3.0256  -19.0884    0.0000 C   0  0
    7.2645  -19.0795    0.0000 O   0  0
    6.5522  -17.8563    0.0000 N   0  0
    7.2583  -17.4451    0.0000 C   0  0
    7.9676  -17.8510    0.0000 C   0  0
    7.9659  -18.6685    0.0000 C   0  0
    8.6743  -19.0744    0.0000 C   0  0
    9.3814  -18.6631    0.0000 C   0  0
    9.3757  -17.8417    0.0000 C   0  0
    8.6667  -17.4395    0.0000 N   0  0
   10.0804  -17.4279    0.0000 O   0  0
   10.0912  -19.0681    0.0000 O   0  0
   10.7911  -17.8313    0.0000 C   0  0
   10.7968  -18.6559    0.0000 C   0  0
    1.6119  -19.0950    0.0000 C   0  0
  1  2  2  0
  2  3  1  0
  3  4  2  0
  4  5  1  0
  5  6  2  0
  6  1  1  0
  1  7  1  0
  5  8  1  0
  4  9  1  0
  9 10  2  0
 10 11  1  0
 11 12  2  0
 12 13  1  0
 13 14  2  0
 14  9  1  0
  7 15  2  0
 15 16  1  0
 16 17  2  0
 17 18  1  0
 18 19  2  0
 19  7  1  0
  8 20  2  0
  8 21  1  0
 21 22  1  0
 22 23  1  0
 23 24  2  0
 24 25  1  0
 25 26  2  0
 26 27  1  0
 27 28  2  0
 28 23  1  0
 27 29  1  0
 26 30  1  0
 29 31  1  0
 30 32  1  0
 18 33  1  0
M  END
> <chembl_id>
CHEMBL3338849

$$$$

  SciTegic02271515092D

 33 36  0  0  0  0            999 V2000
   16.9704   -2.5333    0.0000 S   0  0
   16.2970   -3.0200    0.0000 C   0  0
   16.5536   -3.8082    0.0000 N   0  0
   17.3828   -3.8082    0.0000 C   0  0
   17.6396   -3.0200    0.0000 C   0  0
   17.8674   -4.4758    0.0000 C   0  0
   17.5279   -5.2278    0.0000 C   0  0
   18.0118   -5.8950    0.0000 C   0  0
   18.8332   -5.8094    0.0000 C   0  0
   19.1684   -5.0510    0.0000 C   0  0
   18.6824   -4.3869    0.0000 C   0  0
   18.3535   -2.6031    0.0000 C   0  0
   19.0667   -3.0117    0.0000 O   0  0
   18.3475   -1.7770    0.0000 N   0  0
   19.0605   -1.3618    0.0000 C   0  0
   19.7765   -1.7715    0.0000 C   0  0
   19.7748   -2.5968    0.0000 C   0  0
   20.4900   -3.0066    0.0000 C   0  0
   21.2038   -2.5914    0.0000 C   0  0
   21.1981   -1.7621    0.0000 C   0  0
   20.4823   -1.3561    0.0000 N   0  0
   21.9095   -1.3444    0.0000 O   0  0
   21.9204   -3.0002    0.0000 O   0  0
   22.6269   -1.7516    0.0000 C   0  0
   22.6327   -2.5841    0.0000 C   0  0
   15.5126   -2.7644    0.0000 C   0  0
   15.3418   -1.9573    0.0000 C   0  0
   14.5574   -1.7017    0.0000 N   0  0
   13.9439   -2.2531    0.0000 C   0  0
   14.1147   -3.0602    0.0000 C   0  0
   13.5011   -3.6117    0.0000 C   0  0
   14.8990   -3.3158    0.0000 C   0  0
   17.6756   -6.6484    0.0000 F   0  0
  2  3  2  0
  1  2  1  0
  3  4  1  0
  4  5  2  0
  5  1  1  0
  4  6  1  0
  6  7  2  0
  7  8  1  0
  8  9  2  0
  9 10  1  0
 10 11  2  0
 11  6  1  0
 12 13  2  0
 12 14  1  0
 14 15  1  0
 15 16  1  0
 16 17  2  0
 17 18  1  0
 18 19  2  0
 19 20  1  0
 20 21  2  0
 21 16  1  0
 20 22  1  0
 19 23  1  0
 22 24  1  0
 23 25  1  0
 12  5  1  0
  2 26  1  0
 26 27  2  0
 26 32  1  0
 27 28  1  0
 28 29  2  0
 29 30  1  0
 30 31  1  0
 30 32  2  0
  8 33  1  0
M  END
> <chembl_id>
CHEMBL3338854

$$$$

  SciTegic02271515092D

 33 36  0  0  0  0            999 V2000
   17.1101   -3.5824    0.0000 C   0  0
   17.1089   -4.4019    0.0000 C   0  0
   17.8170   -4.8109    0.0000 N   0  0
   18.5266   -4.4015    0.0000 C   0  0
   18.5238   -3.5788    0.0000 C   0  0
   17.8152   -3.1735    0.0000 C   0  0
   16.4023   -3.1740    0.0000 C   0  0
   19.2300   -3.1675    0.0000 C   0  0
   19.2350   -4.8089    0.0000 C   0  0
   19.2314   -5.6265    0.0000 C   0  0
   19.9389   -6.0339    0.0000 C   0  0
   20.6470   -5.6241    0.0000 C   0  0
   20.6431   -4.8027    0.0000 C   0  0
   19.9350   -4.3990    0.0000 C   0  0
   16.4055   -2.3558    0.0000 C   0  0
   15.6985   -1.9475    0.0000 N   0  0
   14.9899   -2.3563    0.0000 C   0  0
   14.9927   -3.1777    0.0000 C   0  0
   15.7003   -3.5824    0.0000 C   0  0
   19.9392   -3.5735    0.0000 O   0  0
   19.2269   -2.3504    0.0000 N   0  0
   19.9331   -1.9391    0.0000 C   0  0
   20.6423   -2.3450    0.0000 C   0  0
   20.6406   -3.1625    0.0000 C   0  0
   21.3490   -3.5684    0.0000 C   0  0
   22.0562   -3.1571    0.0000 C   0  0
   22.0504   -2.3357    0.0000 C   0  0
   21.3415   -1.9335    0.0000 N   0  0
   22.7551   -1.9219    0.0000 O   0  0
   22.7659   -3.5621    0.0000 O   0  0
   23.4658   -2.3253    0.0000 C   0  0
   23.4715   -3.1499    0.0000 C   0  0
   14.2866   -3.5890    0.0000 C   0  0
  1  2  2  0
  2  3  1  0
  3  4  2  0
  4  5  1  0
  5  6  2  0
  6  1  1  0
  1  7  1  0
  5  8  1  0
  4  9  1  0
  9 10  2  0
 10 11  1  0
 11 12  2  0
 12 13  1  0
 13 14  2  0
 14  9  1  0
  7 15  2  0
 15 16  1  0
 16 17  2  0
 17 18  1  0
 18 19  2  0
 19  7  1  0
  8 20  2  0
  8 21  1  0
 21 22  1  0
 22 23  1  0
 23 24  2  0
 24 25  1  0
 25 26  2  0
 26 27  1  0
 27 28  2  0
 28 23  1  0
 27 29  1  0
 26 30  1  0
 29 31  1  0
 30 32  1  0
 18 33  1  0
M  END
> <chembl_id>
CHEMBL3338846

$$$$

  SciTegic02271515092D

 34 37  0  0  0  0            999 V2000
   17.1354  -23.9324    0.0000 C   0  0
   17.1342  -24.7597    0.0000 N   0  0
   17.8491  -25.1726    0.0000 C   0  0
   18.5654  -24.7592    0.0000 C   0  0
   18.5626  -23.9288    0.0000 C   0  0
   17.8472  -23.5196    0.0000 C   0  0
   16.4209  -23.5200    0.0000 C   0  0
   19.2755  -23.5136    0.0000 C   0  0
   19.2806  -25.1706    0.0000 C   0  0
   19.2769  -25.9960    0.0000 C   0  0
   19.9912  -26.4072    0.0000 N   0  0
   20.7060  -25.9935    0.0000 C   0  0
   20.7021  -25.1643    0.0000 C   0  0
   19.9872  -24.7568    0.0000 C   0  0
   16.4241  -22.6941    0.0000 C   0  0
   15.7104  -22.2820    0.0000 N   0  0
   14.9951  -22.6946    0.0000 C   0  0
   14.9979  -23.5239    0.0000 C   0  0
   15.7122  -23.9323    0.0000 C   0  0
   19.9915  -23.9233    0.0000 O   0  0
   19.2724  -22.6886    0.0000 N   0  0
   19.9853  -22.2735    0.0000 C   0  0
   20.7012  -22.6832    0.0000 C   0  0
   20.6995  -23.5085    0.0000 C   0  0
   21.4147  -23.9183    0.0000 C   0  0
   22.1286  -23.5030    0.0000 C   0  0
   22.1227  -22.6737    0.0000 C   0  0
   21.4071  -22.2678    0.0000 N   0  0
   22.8342  -22.2561    0.0000 O   0  0
   22.8451  -23.9118    0.0000 O   0  0
   23.5516  -22.6633    0.0000 C   0  0
   23.5575  -23.4957    0.0000 C   0  0
   14.2851  -23.9391    0.0000 C   0  0
   21.4144  -24.7482    0.0000 F   0  0
  1  2  2  0
  2  3  1  0
  3  4  2  0
  4  5  1  0
  5  6  2  0
  6  1  1  0
  1  7  1  0
  5  8  1  0
  4  9  1  0
  9 10  2  0
 10 11  1  0
 11 12  2  0
 12 13  1  0
 13 14  2  0
 14  9  1  0
  7 15  2  0
 15 16  1  0
 16 17  2  0
 17 18  1  0
 18 19  2  0
 19  7  1  0
  8 20  2  0
  8 21  1  0
 21 22  1  0
 22 23  1  0
 23 24  2  0
 24 25  1  0
 25 26  2  0
 26 27  1  0
 27 28  2  0
 28 23  1  0
 27 29  1  0
 26 30  1  0
 29 31  1  0
 30 32  1  0
 18 33  1  0
 13 34  1  0
M  END
> <chembl_id>
CHEMBL3338860

$$$$

  SciTegic02271515092D

 34 37  0  0  0  0            999 V2000
    4.0515   -9.6164    0.0000 C   0  0
    4.0504  -10.4359    0.0000 N   0  0
    4.7584  -10.8449    0.0000 C   0  0
    5.4681  -10.4355    0.0000 C   0  0
    5.4653   -9.6128    0.0000 C   0  0
    4.7566   -9.2075    0.0000 C   0  0
    3.3437   -9.2080    0.0000 C   0  0
    6.1714   -9.2015    0.0000 C   0  0
    6.1764  -10.8430    0.0000 C   0  0
    6.1729  -11.6605    0.0000 C   0  0
    6.8804  -12.0679    0.0000 C   0  0
    7.5884  -11.6581    0.0000 C   0  0
    7.5845  -10.8367    0.0000 C   0  0
    6.8764  -10.4330    0.0000 C   0  0
    3.3469   -8.3899    0.0000 C   0  0
    2.6400   -7.9815    0.0000 N   0  0
    1.9314   -8.3903    0.0000 C   0  0
    1.9342   -9.2117    0.0000 C   0  0
    2.6417   -9.6164    0.0000 C   0  0
    6.8807   -9.6075    0.0000 O   0  0
    6.1683   -8.3844    0.0000 N   0  0
    6.8745   -7.9731    0.0000 C   0  0
    7.5837   -8.3790    0.0000 C   0  0
    7.5820   -9.1965    0.0000 C   0  0
    8.2905   -9.6024    0.0000 C   0  0
    8.9976   -9.1911    0.0000 C   0  0
    8.9919   -8.3697    0.0000 C   0  0
    8.2829   -7.9675    0.0000 N   0  0
    9.6966   -7.9559    0.0000 O   0  0
    9.7074   -9.5961    0.0000 O   0  0
   10.4073   -8.3593    0.0000 C   0  0
   10.4130   -9.1839    0.0000 C   0  0
    1.2280   -9.6230    0.0000 C   0  0
    5.4645  -12.0680    0.0000 F   0  0
  1  2  2  0
  2  3  1  0
  3  4  2  0
  4  5  1  0
  5  6  2  0
  6  1  1  0
  1  7  1  0
  5  8  1  0
  4  9  1  0
  9 10  2  0
 10 11  1  0
 11 12  2  0
 12 13  1  0
 13 14  2  0
 14  9  1  0
  7 15  2  0
 15 16  1  0
 16 17  2  0
 17 18  1  0
 18 19  2  0
 19  7  1  0
  8 20  2  0
  8 21  1  0
 21 22  1  0
 22 23  1  0
 23 24  2  0
 24 25  1  0
 25 26  2  0
 26 27  1  0
 27 28  2  0
 28 23  1  0
 27 29  1  0
 26 30  1  0
 29 31  1  0
 30 32  1  0
 18 33  1  0
 10 34  1  0
M  END
> <chembl_id>
CHEMBL3338855

$$$$

  SciTegic02271515092D

 33 36  0  0  0  0            999 V2000
   16.9202  -27.0828    0.0000 C   0  0
   16.9191  -27.9024    0.0000 C   0  0
   17.6271  -28.3113    0.0000 C   0  0
   18.3368  -27.9019    0.0000 C   0  0
   18.3340  -27.0792    0.0000 C   0  0
   17.6253  -26.6740    0.0000 C   0  0
   16.2124  -26.6744    0.0000 C   0  0
   19.0401  -26.6680    0.0000 C   0  0
   19.0451  -28.3094    0.0000 C   0  0
   19.0416  -29.1269    0.0000 C   0  0
   19.7491  -29.5343    0.0000 C   0  0
   20.4571  -29.1246    0.0000 C   0  0
   20.4532  -28.3032    0.0000 C   0  0
   19.7451  -27.8995    0.0000 C   0  0
   16.2156  -25.8563    0.0000 C   0  0
   15.5087  -25.4479    0.0000 N   0  0
   14.8001  -25.8568    0.0000 C   0  0
   14.8029  -26.6782    0.0000 C   0  0
   15.5104  -27.0828    0.0000 C   0  0
   19.7494  -27.0739    0.0000 O   0  0
   19.0370  -25.8508    0.0000 N   0  0
   19.7432  -25.4395    0.0000 C   0  0
   20.4524  -25.8455    0.0000 C   0  0
   20.4507  -26.6630    0.0000 C   0  0
   21.1592  -27.0688    0.0000 C   0  0
   21.8663  -26.6575    0.0000 C   0  0
   21.8606  -25.8361    0.0000 C   0  0
   21.1516  -25.4340    0.0000 N   0  0
   22.5653  -25.4224    0.0000 O   0  0
   22.5761  -27.0625    0.0000 O   0  0
   23.2760  -25.8258    0.0000 C   0  0
   23.2817  -26.6503    0.0000 C   0  0
   14.0967  -27.0894    0.0000 C   0  0
  1  2  2  0
  2  3  1  0
  3  4  2  0
  4  5  1  0
  5  6  2  0
  6  1  1  0
  1  7  1  0
  5  8  1  0
  4  9  1  0
  9 10  2  0
 10 11  1  0
 11 12  2  0
 12 13  1  0
 13 14  2  0
 14  9  1  0
  7 15  2  0
 15 16  1  0
 16 17  2  0
 17 18  1  0
 18 19  2  0
 19  7  1  0
  8 20  2  0
  8 21  1  0
 21 22  1  0
 22 23  1  0
 23 24  2  0
 24 25  1  0
 25 26  2  0
 26 27  1  0
 27 28  2  0
 28 23  1  0
 27 29  1  0
 26 30  1  0
 29 31  1  0
 30 32  1  0
 18 33  1  0
M  END
> <chembl_id>
CHEMBL3338852

$$$$

  SciTegic02271515092D

 33 36  0  0  0  0            999 V2000
    4.7325  -11.8369    0.0000 C   0  0
    4.7314  -12.6564    0.0000 C   0  0
    5.4394  -13.0654    0.0000 C   0  0
    6.1491  -12.6559    0.0000 C   0  0
    6.1462  -11.8333    0.0000 C   0  0
    5.4376  -11.4280    0.0000 N   0  0
    4.0247  -11.4284    0.0000 C   0  0
    6.8524  -11.4220    0.0000 C   0  0
    6.8574  -13.0634    0.0000 C   0  0
    6.8539  -13.8809    0.0000 C   0  0
    7.5614  -14.2884    0.0000 C   0  0
    8.2694  -13.8786    0.0000 C   0  0
    8.2655  -13.0572    0.0000 C   0  0
    7.5574  -12.6535    0.0000 C   0  0
    4.0279  -10.6103    0.0000 C   0  0
    3.3209  -10.2020    0.0000 N   0  0
    2.6124  -10.6108    0.0000 C   0  0
    2.6152  -11.4322    0.0000 C   0  0
    3.3227  -11.8368    0.0000 C   0  0
    7.5617  -11.8279    0.0000 O   0  0
    6.8493  -10.6048    0.0000 N   0  0
    7.5555  -10.1936    0.0000 C   0  0
    8.2647  -10.5995    0.0000 C   0  0
    8.2630  -11.4170    0.0000 C   0  0
    8.9715  -11.8228    0.0000 C   0  0
    9.6786  -11.4115    0.0000 C   0  0
    9.6729  -10.5901    0.0000 C   0  0
    8.9639  -10.1880    0.0000 N   0  0
   10.3776  -10.1764    0.0000 O   0  0
   10.3884  -11.8165    0.0000 O   0  0
   11.0882  -10.5798    0.0000 C   0  0
   11.0940  -11.4043    0.0000 C   0  0
    1.9090  -11.8434    0.0000 C   0  0
  1  2  2  0
  2  3  1  0
  3  4  2  0
  4  5  1  0
  5  6  2  0
  6  1  1  0
  1  7  1  0
  5  8  1  0
  4  9  1  0
  9 10  2  0
 10 11  1  0
 11 12  2  0
 12 13  1  0
 13 14  2  0
 14  9  1  0
  7 15  2  0
 15 16  1  0
 16 17  2  0
 17 18  1  0
 18 19  2  0
 19  7  1  0
  8 20  2  0
  8 21  1  0
 21 22  1  0
 22 23  1  0
 23 24  2  0
 24 25  1  0
 25 26  2  0
 26 27  1  0
 27 28  2  0
 28 23  1  0
 27 29  1  0
 26 30  1  0
 29 31  1  0
 30 32  1  0
 18 33  1  0
M  END
> <chembl_id>
CHEMBL3338847

$$$$

  SciTegic02271515092D

 36 40  0  0  0  0            999 V2000
    4.1753   -2.9633    0.0000 C   0  0
    4.1742   -3.7828    0.0000 N   0  0
    5.5891   -2.9597    0.0000 C   0  0
    4.8804   -2.5545    0.0000 C   0  0
    3.4675   -2.5549    0.0000 C   0  0
    6.2952   -2.5485    0.0000 C   0  0
    3.4707   -1.7368    0.0000 C   0  0
    2.7638   -1.3284    0.0000 N   0  0
    2.0552   -1.7372    0.0000 C   0  0
    2.0580   -2.5586    0.0000 C   0  0
    2.7656   -2.9633    0.0000 C   0  0
    7.0045   -2.9544    0.0000 O   0  0
    6.2922   -1.7313    0.0000 N   0  0
    6.9983   -1.3200    0.0000 C   0  0
    7.7076   -1.7259    0.0000 C   0  0
    7.7059   -2.5435    0.0000 C   0  0
    8.4143   -2.9493    0.0000 C   0  0
    9.1214   -2.5380    0.0000 C   0  0
    9.1157   -1.7166    0.0000 C   0  0
    8.4067   -1.3144    0.0000 N   0  0
    9.8204   -1.3028    0.0000 O   0  0
    9.8312   -2.9430    0.0000 O   0  0
   10.5311   -1.7063    0.0000 C   0  0
   10.5368   -2.5308    0.0000 C   0  0
    1.3518   -2.9699    0.0000 C   0  0
    5.5919   -3.7824    0.0000 C   0  0
    4.8812   -4.1905    0.0000 C   0  0
    5.0497   -4.9926    0.0000 O   0  0
    5.8647   -5.0802    0.0000 N   0  0
    6.1996   -4.3322    0.0000 C   0  0
    6.9994   -4.1641    0.0000 C   0  0
    7.5412   -4.7721    0.0000 C   0  0
    8.3402   -4.6046    0.0000 C   0  0
    8.5952   -3.8272    0.0000 C   0  0
    8.0450   -3.2173    0.0000 C   0  0
    7.2480   -3.3880    0.0000 C   0  0
  1  2  2  0
  2 27  1  0
 26  3  1  0
  3  4  2  0
  4  1  1  0
  1  5  1  0
  3  6  1  0
  5  7  2  0
  7  8  1  0
  8  9  2  0
  9 10  1  0
 10 11  2  0
 11  5  1  0
  6 12  2  0
  6 13  1  0
 13 14  1  0
 14 15  1  0
 15 16  2  0
 16 17  1  0
 17 18  2  0
 18 19  1  0
 19 20  2  0
 20 15  1  0
 19 21  1  0
 18 22  1  0
 21 23  1  0
 22 24  1  0
 10 25  1  0
 26 27  2  0
 27 28  1  0
 28 29  1  0
 29 30  2  0
 30 26  1  0
 30 31  1  0
 31 32  2  0
 32 33  1  0
 33 34  2  0
 34 35  1  0
 35 36  2  0
 36 31  1  0
M  END
> <chembl_id>
CHEMBL3338853

$$$$

  SciTegic02271515092D

 33 36  0  0  0  0            999 V2000
   17.1059  -11.5562    0.0000 C   0  0
   17.1048  -12.3757    0.0000 N   0  0
   17.8128  -12.7847    0.0000 C   0  0
   18.5225  -12.3753    0.0000 C   0  0
   18.5197  -11.5526    0.0000 C   0  0
   17.8111  -11.1473    0.0000 C   0  0
   16.3981  -11.1478    0.0000 C   0  0
   19.2258  -11.1413    0.0000 C   0  0
   19.2309  -12.7828    0.0000 C   0  0
   19.2273  -13.6003    0.0000 C   0  0
   19.9348  -14.0077    0.0000 C   0  0
   20.6428  -13.5979    0.0000 C   0  0
   20.6389  -12.7765    0.0000 C   0  0
   19.9308  -12.3728    0.0000 C   0  0
   16.4014  -10.3296    0.0000 C   0  0
   15.6944   -9.9213    0.0000 N   0  0
   14.9858  -10.3301    0.0000 C   0  0
   14.9886  -11.1515    0.0000 C   0  0
   15.6962  -11.5562    0.0000 C   0  0
   19.9351  -11.5473    0.0000 O   0  0
   19.2228  -10.3242    0.0000 N   0  0
   19.9289   -9.9129    0.0000 C   0  0
   20.6382  -10.3188    0.0000 C   0  0
   20.6365  -11.1363    0.0000 C   0  0
   21.3449  -11.5422    0.0000 C   0  0
   22.0520  -11.1309    0.0000 C   0  0
   22.0463  -10.3095    0.0000 C   0  0
   21.3373   -9.9073    0.0000 N   0  0
   22.7510   -9.8957    0.0000 O   0  0
   22.7618  -11.5359    0.0000 O   0  0
   23.4617  -10.2991    0.0000 C   0  0
   23.4674  -11.1237    0.0000 C   0  0
   14.2825  -11.5628    0.0000 C   0  0
  1  2  2  0
  2  3  1  0
  3  4  2  0
  4  5  1  0
  5  6  2  0
  6  1  1  0
  1  7  1  0
  5  8  1  0
  4  9  1  0
  9 10  2  0
 10 11  1  0
 11 12  2  0
 12 13  1  0
 13 14  2  0
 14  9  1  0
  7 15  2  0
 15 16  1  0
 16 17  2  0
 17 18  1  0
 18 19  2  0
 19  7  1  0
  8 20  2  0
  8 21  1  0
 21 22  1  0
 22 23  1  0
 23 24  2  0
 24 25  1  0
 25 26  2  0
 26 27  1  0
 27 28  2  0
 28 23  1  0
 27 29  1  0
 26 30  1  0
 29 31  1  0
 30 32  1  0
 18 33  1  0
M  END
> <chembl_id>
CHEMBL3338848

$$$$

  SciTegic02271515092D

 32 35  0  0  0  0            999 V2000
   15.8678   -3.9827    0.0000 C   0  0
   15.8666   -4.8023    0.0000 N   0  0
   16.5747   -5.2112    0.0000 C   0  0
   17.2843   -4.8018    0.0000 C   0  0
   17.2815   -3.9791    0.0000 C   0  0
   16.5729   -3.5739    0.0000 C   0  0
   15.1600   -3.5743    0.0000 C   0  0
   17.9877   -3.5679    0.0000 C   0  0
   17.9927   -5.2093    0.0000 N   0  0
   15.1632   -2.7562    0.0000 C   0  0
   14.4562   -2.3478    0.0000 N   0  0
   13.7476   -2.7567    0.0000 C   0  0
   13.7504   -3.5781    0.0000 C   0  0
   14.4580   -3.9827    0.0000 C   0  0
   18.6969   -3.9738    0.0000 O   0  0
   17.9846   -2.7507    0.0000 N   0  0
   18.6908   -2.3394    0.0000 C   0  0
   19.4000   -2.7454    0.0000 C   0  0
   19.3983   -3.5629    0.0000 C   0  0
   20.1067   -3.9687    0.0000 C   0  0
   20.8139   -3.5574    0.0000 C   0  0
   20.8081   -2.7360    0.0000 C   0  0
   20.0992   -2.3339    0.0000 N   0  0
   21.5128   -2.3223    0.0000 O   0  0
   21.5236   -3.9624    0.0000 O   0  0
   22.2235   -2.7257    0.0000 C   0  0
   22.2293   -3.5502    0.0000 C   0  0
   13.0443   -3.9893    0.0000 C   0  0
   18.0754   -6.0199    0.0000 C   0  0
   18.8750   -6.1886    0.0000 C   0  0
   19.2825   -5.4802    0.0000 C   0  0
   18.7347   -4.8738    0.0000 C   0  0
  1  2  2  0
  2  3  1  0
  3  4  2  0
  4  5  1  0
  5  6  2  0
  6  1  1  0
  1  7  1  0
  5  8  1  0
  4  9  1  0
  7 10  2  0
 10 11  1  0
 11 12  2  0
 12 13  1  0
 13 14  2  0
 14  7  1  0
  8 15  2  0
  8 16  1  0
 16 17  1  0
 17 18  1  0
 18 19  2  0
 19 20  1  0
 20 21  2  0
 21 22  1  0
 22 23  2  0
 23 18  1  0
 22 24  1  0
 21 25  1  0
 24 26  1  0
 25 27  1  0
 13 28  1  0
  9 29  1  0
 29 30  1  0
 30 31  1  0
 31 32  1  0
 32  9  1  0
M  END
> <chembl_id>
CHEMBL3338862

$$$$
