
  SciTegic10311316262D

 34 38  0  0  0  0            999 V2000
   16.3044  -19.7475    0.0000 N   0  0
   15.8243  -20.4091    0.0000 C   0  0
   16.3065  -21.0700    0.0000 S   0  0
   17.0841  -20.8139    0.0000 C   0  0
   17.0793  -19.9962    0.0000 C   0  0
   15.0072  -20.4102    0.0000 C   0  0
   17.8075  -21.1898    0.0000 C   0  0
   17.8430  -22.0073    0.0000 C   0  0
   18.5676  -22.3836    0.0000 C   0  0
   19.2571  -21.9435    0.0000 C   0  0
   19.2175  -21.1230    0.0000 C   0  0
   18.4926  -20.7505    0.0000 C   0  0
   17.7927  -19.5977    0.0000 C   0  0
   18.4945  -20.0164    0.0000 O   0  0
   17.8044  -18.7806    0.0000 N   0  0
   16.6451  -17.2972    0.0000 C   0  0
   17.4375  -17.5118    0.0000 C   0  0
   17.2272  -16.7183    0.0000 C   0  0
   17.1615  -18.2804    0.0000 C   0  0
   18.4778  -18.3225    0.0000 C   0  0  1  0  0  0
   18.2493  -17.5407    0.0000 C   0  0
   19.1850  -18.7319    0.0000 C   0  0
   19.8932  -18.3242    0.0000 N   0  0
   20.6004  -18.7336    0.0000 C   0  0
   20.5970  -19.5511    0.0000 N   0  0
   21.3034  -19.9604    0.0000 C   0  0
   22.0125  -19.5525    0.0000 C   0  0
   22.0108  -18.7311    0.0000 C   0  0
   21.3039  -18.3255    0.0000 C   0  0
   21.3021  -20.7776    0.0000 C   0  0
   22.7176  -18.3208    0.0000 C   0  0
   23.4263  -18.7277    0.0000 F   0  0
   22.7156  -17.5036    0.0000 F   0  0
   23.4220  -17.9080    0.0000 F   0  0
  2  3  1  0
  1  2  2  0
  3  4  1  0
  4  5  2  0
  5  1  1  0
  2  6  1  0
  7  8  2  0
  8  9  1  0
  9 10  2  0
 10 11  1  0
 11 12  2  0
 12  7  1  0
  4  7  1  0
  5 13  1  0
 13 14  2  0
 13 15  1  0
 17 16  1  0
 18 17  1  0
 16 18  1  0
 19 15  1  0
 17 19  1  0
 15 20  1  0
 20 21  1  0
 21 17  1  0
 20 22  1  1
 22 23  1  0
 23 24  1  0
 24 25  2  0
 25 26  1  0
 26 27  2  0
 27 28  1  0
 28 29  2  0
 29 24  1  0
 26 30  1  0
 28 31  1  0
 31 32  1  0
 31 33  1  0
 31 34  1  0
M  END
> <chembl_id>
CHEMBL2381089

$$$$

  SciTegic10311316262D

 32 36  0  0  0  0            999 V2000
    4.7463   -2.0677    0.0000 C   0  0
    5.1590   -2.7776    0.0000 C   0  0
    5.5675   -2.0653    0.0000 C   0  0
    4.4574   -3.1903    0.0000 C   0  0
    4.4574   -4.0075    0.0000 C   0  0
    5.1627   -4.4120    0.0000 N   0  0
    5.8680   -4.0075    0.0000 C   0  0  1  0  0  0
    5.8680   -3.1903    0.0000 C   0  0
    5.1627   -5.2292    0.0000 C   0  0
    4.4550   -5.6378    0.0000 C   0  0
    5.8704   -5.6378    0.0000 O   0  0
    6.5751   -4.4172    0.0000 C   0  0
    7.2834   -4.0096    0.0000 N   0  0
    7.9905   -4.4192    0.0000 C   0  0
    7.9864   -5.2344    0.0000 N   0  0
    8.6927   -5.6439    0.0000 C   0  0
    9.4019   -5.2363    0.0000 C   0  0
    9.4005   -4.4149    0.0000 C   0  0
    8.6936   -4.0090    0.0000 C   0  0
   10.1096   -5.6450    0.0000 Cl  0  0
    3.7486   -5.2248    0.0000 C   0  0
    3.0413   -5.6327    0.0000 C   0  0
    3.0409   -6.4508    0.0000 C   0  0
    3.7536   -6.8592    0.0000 C   0  0
    4.4579   -6.4490    0.0000 C   0  0
    2.3338   -5.2238    0.0000 C   0  0
    5.1659   -6.8512    0.0000 C   0  0
    5.1676   -7.6695    0.0000 N   0  0
    5.8760   -8.0753    0.0000 C   0  0
    6.5831   -7.6641    0.0000 C   0  0
    6.5774   -6.8427    0.0000 C   0  0
    5.8685   -6.4405    0.0000 N   0  0
  2  1  1  0
  3  2  1  0
  1  3  1  0
  4  5  1  0
  4  2  1  0
  5  6  1  0
  6  7  1  0
  7  8  1  0
  8  2  1  0
  6  9  1  0
  9 10  1  0
  9 11  2  0
  7 12  1  1
 12 13  1  0
 13 14  1  0
 14 15  2  0
 15 16  1  0
 16 17  2  0
 17 18  1  0
 18 19  2  0
 19 14  1  0
 17 20  1  0
 10 21  2  0
 21 22  1  0
 22 23  2  0
 23 24  1  0
 24 25  2  0
 25 10  1  0
 22 26  1  0
 27 28  2  0
 28 29  1  0
 29 30  2  0
 30 31  1  0
 31 32  2  0
 32 27  1  0
 25 27  1  0
M  END
> <chembl_id>
CHEMBL2381092

$$$$

  SciTegic10311316262D

 37 41  0  0  0  0            999 V2000
   25.3043  -25.4254    0.0000 C   0  0
   26.0061  -25.8440    0.0000 O   0  0
   25.3159  -24.6083    0.0000 N   0  0
   24.1567  -23.1249    0.0000 C   0  0
   24.9491  -23.3395    0.0000 C   0  0
   24.7387  -22.5459    0.0000 C   0  0
   24.6731  -24.1081    0.0000 C   0  0
   25.9893  -24.1502    0.0000 C   0  0  1  0  0  0
   25.7609  -23.3684    0.0000 C   0  0
   26.6966  -24.5596    0.0000 C   0  0
   27.4048  -24.1518    0.0000 N   0  0
   28.1120  -24.5612    0.0000 C   0  0
   28.1085  -25.3787    0.0000 N   0  0
   28.8149  -25.7880    0.0000 C   0  0
   29.5241  -25.3802    0.0000 C   0  0
   29.5224  -24.5588    0.0000 C   0  0
   28.8154  -24.1531    0.0000 C   0  0
   30.2319  -25.7886    0.0000 C   0  0
   30.2320  -26.6058    0.0000 F   0  0
   30.9395  -25.3799    0.0000 F   0  0
   30.9336  -26.1955    0.0000 F   0  0
   24.5908  -25.8238    0.0000 C   0  0
   23.8932  -25.4036    0.0000 C   0  0
   23.1803  -25.8014    0.0000 C   0  0
   23.1682  -26.6194    0.0000 C   0  0
   23.8750  -27.0379    0.0000 C   0  0
   24.5851  -26.6378    0.0000 C   0  0
   25.2861  -27.0498    0.0000 C   0  0
   25.2777  -27.8680    0.0000 C   0  0
   25.9809  -28.2827    0.0000 C   0  0
   26.6932  -27.8803    0.0000 C   0  0
   26.6977  -27.0589    0.0000 C   0  0
   25.9938  -26.6479    0.0000 C   0  0
   22.4787  -25.3824    0.0000 S   0  0
   22.4907  -24.5653    0.0000 C   0  0
   21.6597  -25.3783    0.0000 O   0  0
   22.0642  -26.0841    0.0000 O   0  0
  1  2  2  0
  1  3  1  0
  5  4  1  0
  6  5  1  0
  4  6  1  0
  7  3  1  0
  5  7  1  0
  3  8  1  0
  8  9  1  0
  9  5  1  0
  8 10  1  1
 10 11  1  0
 11 12  1  0
 12 13  2  0
 13 14  1  0
 14 15  2  0
 15 16  1  0
 16 17  2  0
 17 12  1  0
 15 18  1  0
 18 19  1  0
 18 20  1  0
 18 21  1  0
  1 22  1  0
 22 23  2  0
 23 24  1  0
 24 25  2  0
 25 26  1  0
 26 27  2  0
 27 22  1  0
 28 29  2  0
 29 30  1  0
 30 31  2  0
 31 32  1  0
 32 33  2  0
 33 28  1  0
 27 28  1  0
 24 34  1  0
 34 35  1  0
 34 36  2  0
 34 37  2  0
M  END
> <chembl_id>
CHEMBL2381082

$$$$

  SciTegic10311316262D

 33 37  0  0  0  0            999 V2000
    4.3767  -18.8849    0.0000 N   0  0
    3.8967  -19.5465    0.0000 C   0  0
    4.3789  -20.2074    0.0000 S   0  0
    5.1564  -19.9513    0.0000 C   0  0
    5.1516  -19.1336    0.0000 C   0  0
    3.0795  -19.5476    0.0000 C   0  0
    5.8798  -20.3272    0.0000 C   0  0
    5.9153  -21.1447    0.0000 C   0  0
    6.6399  -21.5210    0.0000 C   0  0
    7.3294  -21.0809    0.0000 C   0  0
    7.2899  -20.2604    0.0000 C   0  0
    6.5649  -19.8879    0.0000 C   0  0
    5.8650  -18.7351    0.0000 C   0  0
    6.5668  -19.1538    0.0000 O   0  0
    5.8767  -17.9180    0.0000 N   0  0
    4.7174  -16.4346    0.0000 C   0  0
    5.5099  -16.6492    0.0000 C   0  0
    5.2995  -15.8557    0.0000 C   0  0
    5.2338  -17.4178    0.0000 C   0  0
    6.5501  -17.4600    0.0000 C   0  0  1  0  0  0
    6.3217  -16.6781    0.0000 C   0  0
    7.2573  -17.8694    0.0000 C   0  0
    7.9655  -17.4616    0.0000 N   0  0
    8.6728  -17.8710    0.0000 C   0  0
    8.6693  -18.6885    0.0000 N   0  0
    9.3757  -19.0978    0.0000 C   0  0
   10.0848  -18.6899    0.0000 C   0  0
   10.0832  -17.8685    0.0000 C   0  0
    9.3762  -17.4629    0.0000 C   0  0
   10.7899  -17.4582    0.0000 C   0  0
   11.4986  -17.8651    0.0000 F   0  0
   10.7879  -16.6410    0.0000 F   0  0
   11.4943  -17.0455    0.0000 F   0  0
  2  3  1  0
  1  2  2  0
  3  4  1  0
  4  5  2  0
  5  1  1  0
  2  6  1  0
  7  8  2  0
  8  9  1  0
  9 10  2  0
 10 11  1  0
 11 12  2  0
 12  7  1  0
  4  7  1  0
  5 13  1  0
 13 14  2  0
 13 15  1  0
 17 16  1  0
 18 17  1  0
 16 18  1  0
 19 15  1  0
 17 19  1  0
 15 20  1  0
 20 21  1  0
 21 17  1  0
 20 22  1  1
 22 23  1  0
 23 24  1  0
 24 25  2  0
 25 26  1  0
 26 27  2  0
 27 28  1  0
 28 29  2  0
 29 24  1  0
 28 30  1  0
 30 31  1  0
 30 32  1  0
 30 33  1  0
M  END
> <chembl_id>
CHEMBL2381088

$$$$

  SciTegic10311316262D

 34 38  0  0  0  0            999 V2000
   18.4324   -4.9048    0.0000 C   0  0
   19.1342   -5.3234    0.0000 O   0  0
   18.4441   -4.0877    0.0000 N   0  0
   17.2848   -2.6043    0.0000 C   0  0
   18.0773   -2.8189    0.0000 C   0  0
   17.8669   -2.0253    0.0000 C   0  0
   17.8012   -3.5875    0.0000 C   0  0
   19.1175   -3.6296    0.0000 C   0  0  1  0  0  0
   18.8891   -2.8478    0.0000 C   0  0
   19.8247   -4.0390    0.0000 C   0  0
   20.5329   -3.6312    0.0000 N   0  0
   21.2402   -4.0406    0.0000 C   0  0
   21.2367   -4.8581    0.0000 N   0  0
   21.9431   -5.2674    0.0000 C   0  0
   22.6523   -4.8596    0.0000 C   0  0
   22.6506   -4.0382    0.0000 C   0  0
   21.9436   -3.6326    0.0000 C   0  0
   23.3600   -5.2681    0.0000 C   0  0
   23.3602   -6.0853    0.0000 F   0  0
   24.0677   -4.8593    0.0000 F   0  0
   24.0617   -5.6749    0.0000 F   0  0
   17.7190   -5.3033    0.0000 C   0  0
   17.0214   -4.8830    0.0000 C   0  0
   16.3084   -5.2808    0.0000 C   0  0
   16.2963   -6.0988    0.0000 C   0  0
   17.0031   -6.5174    0.0000 C   0  0
   17.7132   -6.1172    0.0000 C   0  0
   15.6068   -4.8619    0.0000 Cl  0  0
   18.4143   -6.5292    0.0000 C   0  0
   18.4058   -7.3475    0.0000 N   0  0
   19.1091   -7.7621    0.0000 C   0  0
   19.8213   -7.3597    0.0000 C   0  0
   19.8259   -6.5383    0.0000 C   0  0
   19.1220   -6.1273    0.0000 N   0  0
  1  2  2  0
  1  3  1  0
  5  4  1  0
  6  5  1  0
  4  6  1  0
  7  3  1  0
  5  7  1  0
  3  8  1  0
  8  9  1  0
  9  5  1  0
  8 10  1  1
 10 11  1  0
 11 12  1  0
 12 13  2  0
 13 14  1  0
 14 15  2  0
 15 16  1  0
 16 17  2  0
 17 12  1  0
 15 18  1  0
 18 19  1  0
 18 20  1  0
 18 21  1  0
  1 22  1  0
 22 23  2  0
 23 24  1  0
 24 25  2  0
 25 26  1  0
 26 27  2  0
 27 22  1  0
 24 28  1  0
 29 30  2  0
 30 31  1  0
 31 32  2  0
 32 33  1  0
 33 34  2  0
 34 29  1  0
 27 29  1  0
M  END
> <chembl_id>
CHEMBL2381075

$$$$

  SciTegic10311316262D

 34 38  0  0  0  0            999 V2000
    4.1790  -13.2650    0.0000 N   0  0
    3.6990  -13.9267    0.0000 C   0  0
    4.1812  -14.5876    0.0000 S   0  0
    4.9588  -14.3314    0.0000 C   0  0
    4.9540  -13.5136    0.0000 C   0  0
    5.2457   -9.9425    0.0000 C   0  0
    5.6584  -10.6524    0.0000 C   0  0
    6.0668   -9.9400    0.0000 C   0  0
    4.9568  -11.0651    0.0000 C   0  0
    4.9568  -11.8823    0.0000 C   0  0
    5.6621  -12.2868    0.0000 N   0  0
    6.3674  -11.8823    0.0000 C   0  0  1  0  0  0
    6.3674  -11.0651    0.0000 C   0  0
    5.6621  -13.1040    0.0000 C   0  0
    6.3698  -13.5125    0.0000 O   0  0
    7.0745  -12.2919    0.0000 C   0  0
    7.7828  -11.8843    0.0000 N   0  0
    8.4899  -12.2940    0.0000 C   0  0
    8.4858  -13.1091    0.0000 N   0  0
    9.1921  -13.5187    0.0000 C   0  0
    9.9013  -13.1111    0.0000 C   0  0
    9.8999  -12.2896    0.0000 C   0  0
    9.1930  -11.8838    0.0000 C   0  0
    2.8818  -13.9278    0.0000 C   0  0
    5.6822  -14.7074    0.0000 C   0  0
    5.7176  -15.5249    0.0000 C   0  0
    6.4422  -15.9012    0.0000 C   0  0
    7.1318  -15.4611    0.0000 C   0  0
    7.0922  -14.6406    0.0000 C   0  0
    6.3672  -14.2680    0.0000 C   0  0
   10.6090  -13.5197    0.0000 C   0  0
   10.6089  -14.3369    0.0000 F   0  0
   11.3168  -13.1112    0.0000 F   0  0
   11.3127  -13.9253    0.0000 F   0  0
  2  3  1  0
  1  2  2  0
  3  4  1  0
  4  5  2  0
  5  1  1  0
  7  6  1  0
  8  7  1  0
  6  8  1  0
  9 10  1  0
  9  7  1  0
 10 11  1  0
 11 12  1  0
 12 13  1  0
 13  7  1  0
 11 14  1  0
 14  5  1  0
 14 15  2  0
 12 16  1  1
 16 17  1  0
 17 18  1  0
 18 19  2  0
 19 20  1  0
 20 21  2  0
 21 22  1  0
 22 23  2  0
 23 18  1  0
  2 24  1  0
 25 26  2  0
 26 27  1  0
 27 28  2  0
 28 29  1  0
 29 30  2  0
 30 25  1  0
  4 25  1  0
 21 31  1  0
 31 32  1  0
 31 33  1  0
 31 34  1  0
M  END
> <chembl_id>
CHEMBL2381099

$$$$

  SciTegic10311316262D

 30 34  0  0  0  0            999 V2000
    3.9021  -28.3816    0.0000 N   0  0
    3.4220  -29.0433    0.0000 C   0  0
    3.9042  -29.7042    0.0000 S   0  0
    4.6818  -29.4481    0.0000 C   0  0
    4.6769  -28.6304    0.0000 C   0  0
    2.6048  -29.0444    0.0000 C   0  0
    5.4052  -29.8240    0.0000 C   0  0
    5.4407  -30.6415    0.0000 C   0  0
    6.1652  -31.0178    0.0000 C   0  0
    6.8548  -30.5777    0.0000 C   0  0
    6.8152  -29.7572    0.0000 C   0  0
    6.0903  -29.3846    0.0000 C   0  0
    5.3904  -28.2319    0.0000 C   0  0
    6.0922  -28.6505    0.0000 O   0  0
    5.4020  -27.4148    0.0000 N   0  0
    4.2428  -25.9314    0.0000 C   0  0
    5.0352  -26.1460    0.0000 C   0  0
    4.8249  -25.3524    0.0000 C   0  0
    4.7592  -26.9146    0.0000 C   0  0
    6.0755  -26.9567    0.0000 C   0  0  1  0  0  0
    5.8470  -26.1749    0.0000 C   0  0
    6.7827  -27.3661    0.0000 C   0  0
    7.4909  -26.9583    0.0000 N   0  0
    8.1981  -27.3677    0.0000 C   0  0
    8.1947  -28.1852    0.0000 N   0  0
    8.9011  -28.5945    0.0000 C   0  0
    9.6102  -28.1867    0.0000 C   0  0
    9.6085  -27.3653    0.0000 C   0  0
    8.9015  -26.9597    0.0000 N   0  0
   10.3180  -28.5952    0.0000 Cl  0  0
  2  3  1  0
  1  2  2  0
  3  4  1  0
  4  5  2  0
  5  1  1  0
  2  6  1  0
  7  8  2  0
  8  9  1  0
  9 10  2  0
 10 11  1  0
 11 12  2  0
 12  7  1  0
  4  7  1  0
  5 13  1  0
 13 14  2  0
 13 15  1  0
 17 16  1  0
 18 17  1  0
 16 18  1  0
 19 15  1  0
 17 19  1  0
 15 20  1  0
 20 21  1  0
 21 17  1  0
 20 22  1  1
 22 23  1  0
 23 24  1  0
 24 25  2  0
 25 26  1  0
 26 27  2  0
 27 28  1  0
 28 29  2  0
 29 24  1  0
 27 30  1  0
M  END
> <chembl_id>
CHEMBL2381072

$$$$

  SciTegic10311316262D

 30 34  0  0  0  0            999 V2000
   15.9164   -5.9254    0.0000 N   0  0
   15.4364   -6.5870    0.0000 C   0  0
   15.9186   -7.2479    0.0000 S   0  0
   16.6962   -6.9918    0.0000 C   0  0
   16.6913   -6.1741    0.0000 C   0  0
   14.6192   -6.5881    0.0000 C   0  0
   17.4196   -7.3677    0.0000 C   0  0
   17.4550   -8.1853    0.0000 C   0  0
   18.1796   -8.5615    0.0000 C   0  0
   18.8692   -8.1214    0.0000 C   0  0
   18.8296   -7.3010    0.0000 C   0  0
   18.1046   -6.9284    0.0000 C   0  0
   17.4048   -5.7756    0.0000 C   0  0
   18.1066   -6.1943    0.0000 O   0  0
   17.4164   -4.9585    0.0000 N   0  0
   16.2572   -3.4751    0.0000 C   0  0
   17.0496   -3.6897    0.0000 C   0  0
   16.8392   -2.8962    0.0000 C   0  0
   16.7736   -4.4583    0.0000 C   0  0
   18.0898   -4.5005    0.0000 C   0  0  1  0  0  0
   17.8614   -3.7186    0.0000 C   0  0
   18.7971   -4.9099    0.0000 C   0  0
   19.5052   -4.5021    0.0000 N   0  0
   20.2125   -4.9115    0.0000 C   0  0
   20.2090   -5.7290    0.0000 N   0  0
   20.9154   -6.1383    0.0000 C   0  0
   21.6246   -5.7304    0.0000 C   0  0
   21.6229   -4.9090    0.0000 C   0  0
   20.9159   -4.5034    0.0000 C   0  0
   22.3324   -6.1389    0.0000 Cl  0  0
  2  3  1  0
  1  2  2  0
  3  4  1  0
  4  5  2  0
  5  1  1  0
  2  6  1  0
  7  8  2  0
  8  9  1  0
  9 10  2  0
 10 11  1  0
 11 12  2  0
 12  7  1  0
  4  7  1  0
  5 13  1  0
 13 14  2  0
 13 15  1  0
 17 16  1  0
 18 17  1  0
 16 18  1  0
 19 15  1  0
 17 19  1  0
 15 20  1  0
 20 21  1  0
 21 17  1  0
 20 22  1  1
 22 23  1  0
 23 24  1  0
 24 25  2  0
 25 26  1  0
 26 27  2  0
 27 28  1  0
 28 29  2  0
 29 24  1  0
 27 30  1  0
M  END
> <chembl_id>
CHEMBL2381098

$$$$

  SciTegic10311316262D

 31 35  0  0  0  0            999 V2000
    4.5175   -6.0258    0.0000 N   0  0
    4.0374   -6.6875    0.0000 C   0  0
    4.5196   -7.3484    0.0000 S   0  0
    5.2972   -7.0923    0.0000 C   0  0
    5.2925   -6.2744    0.0000 C   0  0
    5.5841   -2.7033    0.0000 C   0  0
    5.9969   -3.4132    0.0000 C   0  0
    6.4053   -2.7008    0.0000 C   0  0
    5.2952   -3.8259    0.0000 C   0  0
    5.2952   -4.6431    0.0000 C   0  0
    6.0005   -5.0476    0.0000 N   0  0
    6.7058   -4.6431    0.0000 C   0  0  1  0  0  0
    6.7058   -3.8259    0.0000 C   0  0
    6.0005   -5.8648    0.0000 C   0  0
    6.7082   -6.2734    0.0000 O   0  0
    7.4129   -5.0528    0.0000 C   0  0
    8.1212   -4.6452    0.0000 N   0  0
    8.8283   -5.0548    0.0000 C   0  0
    8.8242   -5.8700    0.0000 N   0  0
    9.5305   -6.2795    0.0000 C   0  0
   10.2398   -5.8719    0.0000 C   0  0
   10.2383   -5.0505    0.0000 C   0  0
    9.5315   -4.6446    0.0000 C   0  0
   10.9474   -6.2806    0.0000 Cl  0  0
    3.2202   -6.6886    0.0000 C   0  0
    6.0206   -7.4682    0.0000 C   0  0
    6.0561   -8.2857    0.0000 C   0  0
    6.7806   -8.6620    0.0000 C   0  0
    7.4702   -8.2219    0.0000 C   0  0
    7.4306   -7.4014    0.0000 C   0  0
    6.7057   -7.0289    0.0000 C   0  0
  2  3  1  0
  1  2  2  0
  3  4  1  0
  4  5  2  0
  5  1  1  0
  7  6  1  0
  8  7  1  0
  6  8  1  0
  9 10  1  0
  9  7  1  0
 10 11  1  0
 11 12  1  0
 12 13  1  0
 13  7  1  0
 11 14  1  0
 14  5  1  0
 14 15  2  0
 12 16  1  1
 16 17  1  0
 17 18  1  0
 18 19  2  0
 19 20  1  0
 20 21  2  0
 21 22  1  0
 22 23  2  0
 23 18  1  0
 21 24  1  0
  2 25  1  0
 26 27  2  0
 27 28  1  0
 28 29  2  0
 29 30  1  0
 30 31  2  0
 31 26  1  0
  4 26  1  0
M  END
> <chembl_id>
CHEMBL2381097

$$$$

  SciTegic10311316262D

 34 38  0  0  0  0            999 V2000
   29.2293  -11.5414    0.0000 C   0  0
   29.9311  -11.9600    0.0000 O   0  0
   29.2409  -10.7243    0.0000 N   0  0
   28.0817   -9.2409    0.0000 C   0  0
   28.8741   -9.4555    0.0000 C   0  0
   28.6637   -8.6619    0.0000 C   0  0
   28.5981  -10.2241    0.0000 C   0  0
   29.9143  -10.2662    0.0000 C   0  0  1  0  0  0
   29.6859   -9.4844    0.0000 C   0  0
   30.6216  -10.6756    0.0000 C   0  0
   31.3298  -10.2678    0.0000 N   0  0
   32.0370  -10.6772    0.0000 C   0  0
   32.0335  -11.4947    0.0000 N   0  0
   32.7399  -11.9040    0.0000 C   0  0
   33.4491  -11.4962    0.0000 C   0  0
   33.4474  -10.6748    0.0000 C   0  0
   32.7404  -10.2691    0.0000 C   0  0
   28.5158  -11.9398    0.0000 C   0  0
   27.8182  -11.5196    0.0000 N   0  0
   27.1053  -11.9174    0.0000 C   0  0
   27.0932  -12.7354    0.0000 C   0  0
   27.8000  -13.1539    0.0000 C   0  0
   28.5100  -12.7538    0.0000 C   0  0
   29.2111  -13.1658    0.0000 C   0  0
   29.2026  -13.9841    0.0000 N   0  0
   29.9059  -14.3987    0.0000 C   0  0
   30.6182  -13.9963    0.0000 C   0  0
   30.6227  -13.1749    0.0000 C   0  0
   29.9188  -12.7639    0.0000 N   0  0
   26.4037  -11.4984    0.0000 C   0  0
   34.1541  -10.2645    0.0000 C   0  0
   34.8628  -10.6714    0.0000 F   0  0
   34.1522   -9.4473    0.0000 F   0  0
   34.8586   -9.8517    0.0000 F   0  0
  1  2  2  0
  1  3  1  0
  5  4  1  0
  6  5  1  0
  4  6  1  0
  7  3  1  0
  5  7  1  0
  3  8  1  0
  8  9  1  0
  9  5  1  0
  8 10  1  1
 10 11  1  0
 11 12  1  0
 12 13  2  0
 13 14  1  0
 14 15  2  0
 15 16  1  0
 16 17  2  0
 17 12  1  0
  1 18  1  0
 18 19  2  0
 19 20  1  0
 20 21  2  0
 21 22  1  0
 22 23  2  0
 23 18  1  0
 24 25  2  0
 25 26  1  0
 26 27  2  0
 27 28  1  0
 28 29  2  0
 29 24  1  0
 23 24  1  0
 20 30  1  0
 16 31  1  0
 31 32  1  0
 31 33  1  0
 31 34  1  0
M  END
> <chembl_id>
CHEMBL2381087

$$$$

  SciTegic10311316262D

 34 38  0  0  0  0            999 V2000
    4.9777  -27.5261    0.0000 C   0  0
    5.6795  -27.9448    0.0000 O   0  0
    4.9893  -26.7090    0.0000 N   0  0
    3.8301  -25.2256    0.0000 C   0  0
    4.6225  -25.4402    0.0000 C   0  0
    4.4121  -24.6467    0.0000 C   0  0
    4.3465  -26.2088    0.0000 C   0  0
    5.6627  -26.2509    0.0000 C   0  0  1  0  0  0
    5.4343  -25.4691    0.0000 C   0  0
    6.3700  -26.6604    0.0000 C   0  0
    7.0782  -26.2526    0.0000 N   0  0
    7.7854  -26.6620    0.0000 C   0  0
    7.7819  -27.4795    0.0000 N   0  0
    8.4883  -27.8888    0.0000 C   0  0
    9.1975  -27.4809    0.0000 C   0  0
    9.1958  -26.6595    0.0000 C   0  0
    8.4888  -26.2539    0.0000 C   0  0
    4.2642  -27.9246    0.0000 C   0  0
    3.5666  -27.5044    0.0000 C   0  0
    2.8537  -27.9022    0.0000 C   0  0
    2.8416  -28.7202    0.0000 C   0  0
    3.5484  -29.1387    0.0000 C   0  0
    4.2584  -28.7385    0.0000 C   0  0
    4.9595  -29.1506    0.0000 C   0  0
    4.9511  -29.9688    0.0000 N   0  0
    5.6543  -30.3835    0.0000 C   0  0
    6.3666  -29.9810    0.0000 C   0  0
    6.3711  -29.1596    0.0000 C   0  0
    5.6672  -28.7486    0.0000 N   0  0
    2.1521  -27.4832    0.0000 C   0  0
    9.9025  -26.2492    0.0000 C   0  0
   10.6112  -26.6561    0.0000 F   0  0
    9.9006  -25.4320    0.0000 F   0  0
   10.6070  -25.8365    0.0000 F   0  0
  1  2  2  0
  1  3  1  0
  5  4  1  0
  6  5  1  0
  4  6  1  0
  7  3  1  0
  5  7  1  0
  3  8  1  0
  8  9  1  0
  9  5  1  0
  8 10  1  1
 10 11  1  0
 11 12  1  0
 12 13  2  0
 13 14  1  0
 14 15  2  0
 15 16  1  0
 16 17  2  0
 17 12  1  0
  1 18  1  0
 18 19  2  0
 19 20  1  0
 20 21  2  0
 21 22  1  0
 22 23  2  0
 23 18  1  0
 24 25  2  0
 25 26  1  0
 26 27  2  0
 27 28  1  0
 28 29  2  0
 29 24  1  0
 23 24  1  0
 20 30  1  0
 16 31  1  0
 31 32  1  0
 31 33  1  0
 31 34  1  0
M  END
> <chembl_id>
CHEMBL2381090

$$$$

  SciTegic10311316262D

 33 37  0  0  0  0            999 V2000
    5.9723   -4.3022    0.0000 C   0  0
    6.6741   -4.7209    0.0000 O   0  0
    5.9840   -3.4851    0.0000 N   0  0
    4.8247   -2.0017    0.0000 C   0  0
    5.6172   -2.2163    0.0000 C   0  0
    5.4068   -1.4228    0.0000 C   0  0
    5.3411   -2.9849    0.0000 C   0  0
    6.6574   -3.0270    0.0000 C   0  0  1  0  0  0
    6.4290   -2.2452    0.0000 C   0  0
    7.3646   -3.4364    0.0000 C   0  0
    8.0728   -3.0286    0.0000 N   0  0
    8.7801   -3.4380    0.0000 C   0  0
    8.7766   -4.2555    0.0000 N   0  0
    9.4830   -4.6649    0.0000 C   0  0
   10.1922   -4.2570    0.0000 C   0  0
   10.1905   -3.4356    0.0000 C   0  0
    9.4835   -3.0300    0.0000 C   0  0
   10.8999   -4.6655    0.0000 C   0  0
   10.9001   -5.4827    0.0000 F   0  0
   11.6076   -4.2568    0.0000 F   0  0
   11.6016   -5.0724    0.0000 F   0  0
    5.2589   -4.7007    0.0000 C   0  0
    4.5613   -4.2805    0.0000 N   0  0
    3.8483   -4.6783    0.0000 C   0  0
    3.8362   -5.4962    0.0000 C   0  0
    4.5430   -5.9148    0.0000 C   0  0
    5.2530   -5.5150    0.0000 C   0  0
    3.1467   -4.2593    0.0000 C   0  0
    5.9029   -6.0056    0.0000 C   0  0
    5.8839   -6.8229    0.0000 N   0  0
    6.6562   -7.0927    0.0000 C   0  0
    7.1504   -6.4404    0.0000 C   0  0
    6.6818   -5.7698    0.0000 S   0  0
  1  2  2  0
  1  3  1  0
  5  4  1  0
  6  5  1  0
  4  6  1  0
  7  3  1  0
  5  7  1  0
  3  8  1  0
  8  9  1  0
  9  5  1  0
  8 10  1  1
 10 11  1  0
 11 12  1  0
 12 13  2  0
 13 14  1  0
 14 15  2  0
 15 16  1  0
 16 17  2  0
 17 12  1  0
 15 18  1  0
 18 19  1  0
 18 20  1  0
 18 21  1  0
  1 22  1  0
 22 23  2  0
 23 24  1  0
 24 25  2  0
 25 26  1  0
 26 27  2  0
 27 22  1  0
 24 28  1  0
 30 31  1  0
 29 30  2  0
 31 32  2  0
 32 33  1  0
 33 29  1  0
 27 29  1  0
M  END
> <chembl_id>
CHEMBL2381083

$$$$

  SciTegic10311316262D

 34 38  0  0  0  0            999 V2000
    6.7978   -3.9514    0.0000 C   0  0
    7.4996   -4.3700    0.0000 O   0  0
    6.8094   -3.1343    0.0000 N   0  0
    5.6502   -1.6509    0.0000 C   0  0
    6.4426   -1.8655    0.0000 C   0  0
    6.2323   -1.0719    0.0000 C   0  0
    6.1666   -2.6341    0.0000 C   0  0
    7.4828   -2.6762    0.0000 C   0  0  1  0  0  0
    7.2544   -1.8944    0.0000 C   0  0
    8.1901   -3.0856    0.0000 C   0  0
    8.8983   -2.6778    0.0000 N   0  0
    9.6055   -3.0872    0.0000 C   0  0
    9.6020   -3.9047    0.0000 N   0  0
   10.3084   -4.3141    0.0000 C   0  0
   11.0176   -3.9062    0.0000 C   0  0
   11.0159   -3.0848    0.0000 C   0  0
   10.3089   -2.6792    0.0000 C   0  0
   11.7254   -4.3147    0.0000 C   0  0
   11.7255   -5.1319    0.0000 F   0  0
   12.4330   -3.9059    0.0000 F   0  0
   12.4271   -4.7215    0.0000 F   0  0
    6.0843   -4.3499    0.0000 C   0  0
    5.3867   -3.9296    0.0000 N   0  0
    4.6738   -4.3274    0.0000 C   0  0
    4.6617   -5.1454    0.0000 C   0  0
    5.3685   -5.5640    0.0000 C   0  0
    6.0786   -5.1638    0.0000 C   0  0
    3.9722   -3.9085    0.0000 C   0  0
    6.7796   -5.5758    0.0000 C   0  0
    6.7712   -6.3941    0.0000 N   0  0
    7.4744   -6.8088    0.0000 C   0  0
    8.1867   -6.4063    0.0000 C   0  0
    8.1912   -5.5849    0.0000 C   0  0
    7.4873   -5.1739    0.0000 N   0  0
  1  2  2  0
  1  3  1  0
  5  4  1  0
  6  5  1  0
  4  6  1  0
  7  3  1  0
  5  7  1  0
  3  8  1  0
  8  9  1  0
  9  5  1  0
  8 10  1  1
 10 11  1  0
 11 12  1  0
 12 13  2  0
 13 14  1  0
 14 15  2  0
 15 16  1  0
 16 17  2  0
 17 12  1  0
 15 18  1  0
 18 19  1  0
 18 20  1  0
 18 21  1  0
  1 22  1  0
 22 23  2  0
 23 24  1  0
 24 25  2  0
 25 26  1  0
 26 27  2  0
 27 22  1  0
 24 28  1  0
 29 30  2  0
 30 31  1  0
 31 32  2  0
 32 33  1  0
 33 34  2  0
 34 29  1  0
 27 29  1  0
M  END
> <chembl_id>
CHEMBL2381074

$$$$

  SciTegic10311316262D

 33 37  0  0  0  0            999 V2000
   15.7390  -13.2553    0.0000 N   0  0
   15.2589  -13.9170    0.0000 C   0  0
   15.7411  -14.5779    0.0000 S   0  0
   16.5187  -14.3218    0.0000 C   0  0
   16.5138  -13.5041    0.0000 C   0  0
   14.4417  -13.9181    0.0000 C   0  0
   17.2421  -14.6977    0.0000 C   0  0
   17.2776  -15.5152    0.0000 C   0  0
   18.0021  -15.8915    0.0000 C   0  0
   18.6917  -15.4514    0.0000 C   0  0
   18.6521  -14.6309    0.0000 C   0  0
   17.9272  -14.2583    0.0000 C   0  0
   17.2273  -13.1056    0.0000 C   0  0
   17.9291  -13.5242    0.0000 O   0  0
   17.2389  -12.2885    0.0000 N   0  0
   16.0797  -10.8051    0.0000 C   0  0
   16.8721  -11.0197    0.0000 C   0  0
   16.6618  -10.2261    0.0000 C   0  0
   16.5961  -11.7883    0.0000 C   0  0
   17.9124  -11.8304    0.0000 C   0  0  1  0  0  0
   17.6839  -11.0486    0.0000 C   0  0
   18.6196  -12.2398    0.0000 C   0  0
   19.3278  -11.8320    0.0000 N   0  0
   20.0350  -12.2414    0.0000 C   0  0
   20.0315  -13.0589    0.0000 N   0  0
   20.7380  -13.4682    0.0000 C   0  0
   21.4471  -13.0604    0.0000 C   0  0
   21.4454  -12.2390    0.0000 C   0  0
   20.7384  -11.8334    0.0000 C   0  0
   22.1549  -13.4689    0.0000 C   0  0
   22.1550  -14.2861    0.0000 F   0  0
   22.8625  -13.0601    0.0000 F   0  0
   22.8566  -13.8757    0.0000 F   0  0
  2  3  1  0
  1  2  2  0
  3  4  1  0
  4  5  2  0
  5  1  1  0
  2  6  1  0
  7  8  2  0
  8  9  1  0
  9 10  2  0
 10 11  1  0
 11 12  2  0
 12  7  1  0
  4  7  1  0
  5 13  1  0
 13 14  2  0
 13 15  1  0
 17 16  1  0
 18 17  1  0
 16 18  1  0
 19 15  1  0
 17 19  1  0
 15 20  1  0
 20 21  1  0
 21 17  1  0
 20 22  1  1
 22 23  1  0
 23 24  1  0
 24 25  2  0
 25 26  1  0
 26 27  2  0
 27 28  1  0
 28 29  2  0
 29 24  1  0
 27 30  1  0
 30 31  1  0
 30 32  1  0
 30 33  1  0
M  END
> <chembl_id>
CHEMBL2381100

$$$$

  SciTegic10311316262D

 34 38  0  0  0  0            999 V2000
   16.2079  -27.1588    0.0000 C   0  0
   16.9097  -27.5774    0.0000 O   0  0
   16.2195  -26.3417    0.0000 N   0  0
   15.0603  -24.8583    0.0000 C   0  0
   15.8527  -25.0729    0.0000 C   0  0
   15.6423  -24.2793    0.0000 C   0  0
   15.5767  -25.8415    0.0000 C   0  0
   16.8929  -25.8836    0.0000 C   0  0  1  0  0  0
   16.6645  -25.1018    0.0000 C   0  0
   17.6002  -26.2930    0.0000 C   0  0
   18.3083  -25.8852    0.0000 N   0  0
   19.0156  -26.2946    0.0000 C   0  0
   19.0121  -27.1121    0.0000 N   0  0
   19.7185  -27.5215    0.0000 C   0  0
   20.4277  -27.1136    0.0000 C   0  0
   20.4260  -26.2922    0.0000 C   0  0
   19.7190  -25.8866    0.0000 C   0  0
   15.4944  -27.5573    0.0000 C   0  0
   14.7968  -27.1371    0.0000 C   0  0
   14.0839  -27.5349    0.0000 C   0  0
   14.0718  -28.3528    0.0000 C   0  0
   14.7786  -28.7714    0.0000 C   0  0
   15.4886  -28.3712    0.0000 C   0  0
   16.1897  -28.7832    0.0000 C   0  0
   16.1812  -29.6015    0.0000 N   0  0
   16.8845  -30.0162    0.0000 C   0  0
   17.5968  -29.6137    0.0000 C   0  0
   17.6013  -28.7923    0.0000 C   0  0
   16.8974  -28.3813    0.0000 N   0  0
   13.3822  -27.1159    0.0000 Cl  0  0
   21.1327  -25.8819    0.0000 C   0  0
   21.8414  -26.2888    0.0000 F   0  0
   21.1308  -25.0647    0.0000 F   0  0
   21.8372  -25.4691    0.0000 F   0  0
  1  2  2  0
  1  3  1  0
  5  4  1  0
  6  5  1  0
  4  6  1  0
  7  3  1  0
  5  7  1  0
  3  8  1  0
  8  9  1  0
  9  5  1  0
  8 10  1  1
 10 11  1  0
 11 12  1  0
 12 13  2  0
 13 14  1  0
 14 15  2  0
 15 16  1  0
 16 17  2  0
 17 12  1  0
  1 18  1  0
 18 19  2  0
 19 20  1  0
 20 21  2  0
 21 22  1  0
 22 23  2  0
 23 18  1  0
 24 25  2  0
 25 26  1  0
 26 27  2  0
 27 28  1  0
 28 29  2  0
 29 24  1  0
 23 24  1  0
 20 30  1  0
 16 31  1  0
 31 32  1  0
 31 33  1  0
 31 34  1  0
M  END
> <chembl_id>
CHEMBL2381091

$$$$

  SciTegic10311316262D

 36 40  0  0  0  0            999 V2000
   13.8099  -25.7638    0.0000 C   0  0
   14.5118  -26.1824    0.0000 O   0  0
   13.8216  -24.9467    0.0000 N   0  0
   12.6623  -23.4633    0.0000 C   0  0
   13.4548  -23.6779    0.0000 C   0  0
   13.2444  -22.8843    0.0000 C   0  0
   13.1787  -24.4465    0.0000 C   0  0
   14.4950  -24.4886    0.0000 C   0  0  1  0  0  0
   14.2666  -23.7068    0.0000 C   0  0
   15.2023  -24.8980    0.0000 C   0  0
   15.9104  -24.4902    0.0000 N   0  0
   16.6177  -24.8996    0.0000 C   0  0
   16.6142  -25.7171    0.0000 N   0  0
   17.3206  -26.1265    0.0000 C   0  0
   18.0298  -25.7186    0.0000 C   0  0
   18.0281  -24.8972    0.0000 C   0  0
   17.3211  -24.4916    0.0000 C   0  0
   18.7375  -26.1271    0.0000 C   0  0
   18.7377  -26.9443    0.0000 F   0  0
   19.4452  -25.7183    0.0000 F   0  0
   19.4392  -26.5340    0.0000 F   0  0
   13.0965  -26.1623    0.0000 C   0  0
   12.3989  -25.7421    0.0000 N   0  0
   11.6859  -26.1398    0.0000 C   0  0
   11.6738  -26.9578    0.0000 C   0  0
   12.3806  -27.3764    0.0000 C   0  0
   13.0907  -26.9762    0.0000 C   0  0
   10.9843  -25.7209    0.0000 C   0  0
   13.7948  -27.3909    0.0000 O   0  0
   14.5061  -26.9885    0.0000 C   0  0
   15.2102  -27.4033    0.0000 C   0  0
   15.1990  -28.2189    0.0000 C   0  0
   15.9022  -28.6335    0.0000 C   0  0
   16.6145  -28.2311    0.0000 C   0  0
   16.6190  -27.4097    0.0000 C   0  0
   15.9151  -26.9987    0.0000 C   0  0
  1  2  2  0
  1  3  1  0
  5  4  1  0
  6  5  1  0
  4  6  1  0
  7  3  1  0
  5  7  1  0
  3  8  1  0
  8  9  1  0
  9  5  1  0
  8 10  1  1
 10 11  1  0
 11 12  1  0
 12 13  2  0
 13 14  1  0
 14 15  2  0
 15 16  1  0
 16 17  2  0
 17 12  1  0
 15 18  1  0
 18 19  1  0
 18 20  1  0
 18 21  1  0
  1 22  1  0
 22 23  2  0
 23 24  1  0
 24 25  2  0
 25 26  1  0
 26 27  2  0
 27 22  1  0
 24 28  1  0
 27 29  1  0
 29 30  1  0
 30 31  1  0
 31 32  2  0
 32 33  1  0
 33 34  2  0
 34 35  1  0
 35 36  2  0
 36 31  1  0
M  END
> <chembl_id>
CHEMBL2381081

$$$$

  SciTegic10311316262D

 30 34  0  0  0  0            999 V2000
   16.1870  -10.2933    0.0000 C   0  0
   16.9794  -10.5079    0.0000 C   0  0
   16.7691   -9.7144    0.0000 C   0  0
   16.7034  -11.2765    0.0000 C   0  0
   17.3462  -11.7767    0.0000 N   0  0
   18.0197  -11.3186    0.0000 C   0  0  1  0  0  0
   17.7912  -10.5368    0.0000 C   0  0
   17.3200  -12.5935    0.0000 C   0  0
   16.5996  -12.9792    0.0000 C   0  0
   18.0143  -13.0245    0.0000 O   0  0
   18.7269  -11.7280    0.0000 C   0  0
   19.4351  -11.3202    0.0000 N   0  0
   20.1423  -11.7296    0.0000 C   0  0
   20.1389  -12.5471    0.0000 N   0  0
   20.8453  -12.9565    0.0000 C   0  0
   21.5544  -12.5486    0.0000 C   0  0
   21.5527  -11.7272    0.0000 C   0  0
   20.8457  -11.3216    0.0000 C   0  0
   15.9085  -12.5470    0.0000 C   0  0
   15.1886  -12.9320    0.0000 C   0  0
   15.1619  -13.7497    0.0000 C   0  0
   15.8612  -14.1807    0.0000 C   0  0
   16.5783  -13.7935    0.0000 C   0  0
   14.4946  -12.5006    0.0000 C   0  0
   17.2301  -14.2816    0.0000 N   0  0
   17.2195  -15.0990    0.0000 N   0  0
   17.9946  -15.3608    0.0000 C   0  0
   18.4821  -14.7035    0.0000 C   0  0
   18.0066  -14.0377    0.0000 N   0  0
   22.2622  -12.9571    0.0000 Cl  0  0
  2  1  1  0
  3  2  1  0
  1  3  1  0
  4  5  1  0
  2  4  1  0
  5  6  1  0
  6  7  1  0
  7  2  1  0
  5  8  1  0
  8  9  1  0
  8 10  2  0
  6 11  1  1
 11 12  1  0
 12 13  1  0
 13 14  2  0
 14 15  1  0
 15 16  2  0
 16 17  1  0
 17 18  2  0
 18 13  1  0
  9 19  2  0
 19 20  1  0
 20 21  2  0
 21 22  1  0
 22 23  2  0
 23  9  1  0
 20 24  1  0
 26 27  2  0
 25 26  1  0
 27 28  1  0
 28 29  2  0
 29 25  1  0
 23 25  1  0
 16 30  1  0
M  END
> <chembl_id>
CHEMBL2380320

$$$$

  SciTegic10311316262D

 31 35  0  0  0  0            999 V2000
   16.0094   -4.8774    0.0000 C   0  0
   15.3030   -4.4645    0.0000 C   0  0
   14.5958   -4.8724    0.0000 C   0  0
   14.5953   -5.6904    0.0000 C   0  0
   15.3080   -6.0989    0.0000 C   0  0
   16.0123   -5.6886    0.0000 C   0  0
   13.8883   -4.4634    0.0000 C   0  0
   16.7203   -6.0908    0.0000 C   0  0
   16.7220   -6.9091    0.0000 N   0  0
   17.4304   -7.3150    0.0000 C   0  0
   18.1376   -6.9037    0.0000 C   0  0
   18.1319   -6.0823    0.0000 C   0  0
   17.4229   -5.6801    0.0000 N   0  0
   16.7135   -4.4688    0.0000 C   0  0
   15.5968   -2.1916    0.0000 C   0  0
   16.3892   -2.4062    0.0000 C   0  0
   16.1789   -1.6126    0.0000 C   0  0
   16.1132   -3.1747    0.0000 C   0  0
   16.7560   -3.6750    0.0000 N   0  0
   17.4295   -3.2169    0.0000 C   0  0  1  0  0  0
   17.2010   -2.4351    0.0000 C   0  0
   17.4241   -4.9228    0.0000 O   0  0
   18.1367   -3.6263    0.0000 C   0  0
   18.8449   -3.2185    0.0000 N   0  0
   19.5521   -3.6279    0.0000 C   0  0
   19.5487   -4.4454    0.0000 N   0  0
   20.2551   -4.8547    0.0000 C   0  0
   20.9642   -4.4469    0.0000 C   0  0
   20.9625   -3.6255    0.0000 C   0  0
   20.2555   -3.2198    0.0000 C   0  0
   21.6720   -4.8553    0.0000 Cl  0  0
 14  1  1  0
  1  2  2  0
  2  3  1  0
  3  4  2  0
  4  5  1  0
  5  6  2  0
  6  1  1  0
  3  7  1  0
  8  9  2  0
  9 10  1  0
 10 11  2  0
 11 12  1  0
 12 13  2  0
 13  8  1  0
  6  8  1  0
 16 15  1  0
 17 16  1  0
 15 17  1  0
 18 19  1  0
 16 18  1  0
 19 20  1  0
 20 21  1  0
 21 16  1  0
 19 14  1  0
 14 22  2  0
 20 23  1  1
 23 24  1  0
 24 25  1  0
 25 26  2  0
 26 27  1  0
 27 28  2  0
 28 29  1  0
 29 30  2  0
 30 25  1  0
 28 31  1  0
M  END
> <chembl_id>
CHEMBL2381093

$$$$

  SciTegic10311316262D

 31 35  0  0  0  0            999 V2000
   15.9948  -21.1961    0.0000 N   0  0
   15.5148  -21.8578    0.0000 C   0  0
   15.9970  -22.5187    0.0000 S   0  0
   16.7746  -22.2626    0.0000 C   0  0
   16.7697  -21.4449    0.0000 C   0  0
   14.6976  -21.8589    0.0000 C   0  0
   17.4980  -22.6385    0.0000 C   0  0
   17.5335  -23.4560    0.0000 C   0  0
   18.2580  -23.8323    0.0000 C   0  0
   18.9476  -23.3922    0.0000 C   0  0
   18.9080  -22.5717    0.0000 C   0  0
   18.1830  -22.1991    0.0000 C   0  0
   17.4832  -21.0464    0.0000 C   0  0
   18.1850  -21.4650    0.0000 O   0  0
   17.4948  -20.2293    0.0000 N   0  0
   16.3356  -18.7459    0.0000 C   0  0
   17.1280  -18.9605    0.0000 C   0  0
   16.9176  -18.1669    0.0000 C   0  0
   16.8520  -19.7291    0.0000 C   0  0
   18.1682  -19.7712    0.0000 C   0  0  1  0  0  0
   17.9398  -18.9894    0.0000 C   0  0
   18.8755  -20.1806    0.0000 C   0  0
   19.5837  -19.7728    0.0000 N   0  0
   20.2909  -20.1822    0.0000 C   0  0
   20.2874  -20.9997    0.0000 N   0  0
   20.9938  -21.4090    0.0000 C   0  0
   21.7030  -21.0012    0.0000 C   0  0
   21.7013  -20.1798    0.0000 C   0  0
   20.9943  -19.7741    0.0000 N   0  0
   22.4080  -19.7695    0.0000 C   0  0
   20.9925  -22.2262    0.0000 C   0  0
  2  3  1  0
  1  2  2  0
  3  4  1  0
  4  5  2  0
  5  1  1  0
  2  6  1  0
  7  8  2  0
  8  9  1  0
  9 10  2  0
 10 11  1  0
 11 12  2  0
 12  7  1  0
  4  7  1  0
  5 13  1  0
 13 14  2  0
 13 15  1  0
 17 16  1  0
 18 17  1  0
 16 18  1  0
 19 15  1  0
 17 19  1  0
 15 20  1  0
 20 21  1  0
 21 17  1  0
 20 22  1  1
 22 23  1  0
 23 24  1  0
 24 25  2  0
 25 26  1  0
 26 27  2  0
 27 28  1  0
 28 29  2  0
 29 24  1  0
 28 30  1  0
 26 31  1  0
M  END
> <chembl_id>
CHEMBL2381071

$$$$

  SciTegic10311316262D

 38 42  0  0  0  0            999 V2000
   18.7874  -18.5700    0.0000 C   0  0
   19.4892  -18.9887    0.0000 O   0  0
   18.7990  -17.7529    0.0000 N   0  0
   17.6398  -16.2695    0.0000 C   0  0
   18.4322  -16.4842    0.0000 C   0  0
   18.2219  -15.6906    0.0000 C   0  0
   18.1562  -17.2527    0.0000 C   0  0
   19.4724  -17.2949    0.0000 C   0  0  1  0  0  0
   19.2440  -16.5130    0.0000 C   0  0
   20.1797  -17.7043    0.0000 C   0  0
   20.8879  -17.2965    0.0000 N   0  0
   21.5951  -17.7059    0.0000 C   0  0
   21.5916  -18.5234    0.0000 N   0  0
   22.2980  -18.9327    0.0000 C   0  0
   23.0072  -18.5249    0.0000 C   0  0
   23.0055  -17.7034    0.0000 C   0  0
   22.2985  -17.2978    0.0000 C   0  0
   23.7150  -18.9333    0.0000 C   0  0
   23.7151  -19.7505    0.0000 F   0  0
   24.4226  -18.5246    0.0000 F   0  0
   24.4167  -19.3402    0.0000 F   0  0
   18.0739  -18.9685    0.0000 C   0  0
   17.3763  -18.5483    0.0000 N   0  0
   16.6634  -18.9461    0.0000 C   0  0
   16.6513  -19.7641    0.0000 C   0  0
   17.3581  -20.1826    0.0000 C   0  0
   18.0682  -19.7824    0.0000 C   0  0
   15.9618  -18.5271    0.0000 O   0  0
   18.7692  -20.1945    0.0000 C   0  0
   18.7608  -21.0127    0.0000 N   0  0
   19.4640  -21.4274    0.0000 C   0  0
   20.1763  -21.0250    0.0000 C   0  0
   20.1808  -20.2035    0.0000 C   0  0
   19.4769  -19.7926    0.0000 N   0  0
   15.9738  -17.7100    0.0000 C   0  0
   15.2722  -17.2910    0.0000 F   0  0
   16.6875  -17.3119    0.0000 F   0  0
   15.9682  -16.8927    0.0000 F   0  0
  1  2  2  0
  1  3  1  0
  5  4  1  0
  6  5  1  0
  4  6  1  0
  7  3  1  0
  5  7  1  0
  3  8  1  0
  8  9  1  0
  9  5  1  0
  8 10  1  1
 10 11  1  0
 11 12  1  0
 12 13  2  0
 13 14  1  0
 14 15  2  0
 15 16  1  0
 16 17  2  0
 17 12  1  0
 15 18  1  0
 18 19  1  0
 18 20  1  0
 18 21  1  0
  1 22  1  0
 22 23  2  0
 23 24  1  0
 24 25  2  0
 25 26  1  0
 26 27  2  0
 27 22  1  0
 24 28  1  0
 29 30  2  0
 30 31  1  0
 31 32  2  0
 32 33  1  0
 33 34  2  0
 34 29  1  0
 27 29  1  0
 28 35  1  0
 35 36  1  0
 35 37  1  0
 35 38  1  0
M  END
> <chembl_id>
CHEMBL2381079

$$$$

  SciTegic10311316262D

 34 38  0  0  0  0            999 V2000
   17.9743   -4.8718    0.0000 C   0  0
   18.6761   -5.2904    0.0000 O   0  0
   17.9860   -4.0547    0.0000 N   0  0
   16.8267   -2.5713    0.0000 C   0  0
   17.6191   -2.7859    0.0000 C   0  0
   17.4088   -1.9923    0.0000 C   0  0
   17.3431   -3.5545    0.0000 C   0  0
   18.6594   -3.5966    0.0000 C   0  0  1  0  0  0
   18.4309   -2.8148    0.0000 C   0  0
   19.3666   -4.0060    0.0000 C   0  0
   20.0748   -3.5982    0.0000 N   0  0
   20.7820   -4.0076    0.0000 C   0  0
   20.7786   -4.8251    0.0000 N   0  0
   21.4850   -5.2344    0.0000 C   0  0
   22.1941   -4.8266    0.0000 C   0  0
   22.1924   -4.0052    0.0000 C   0  0
   21.4854   -3.5995    0.0000 C   0  0
   22.9019   -5.2350    0.0000 C   0  0
   22.9021   -6.0522    0.0000 F   0  0
   23.6095   -4.8263    0.0000 F   0  0
   23.6036   -5.6419    0.0000 F   0  0
   17.2609   -5.2702    0.0000 C   0  0
   16.5633   -4.8500    0.0000 C   0  0
   15.8503   -5.2478    0.0000 C   0  0
   15.8382   -6.0658    0.0000 C   0  0
   16.5450   -6.4843    0.0000 C   0  0
   17.2551   -6.0842    0.0000 C   0  0
   17.9562   -6.4962    0.0000 C   0  0
   17.9477   -7.3145    0.0000 N   0  0
   18.6510   -7.7291    0.0000 C   0  0
   19.3632   -7.3267    0.0000 C   0  0
   19.3678   -6.5053    0.0000 C   0  0
   18.6639   -6.0943    0.0000 N   0  0
   15.1487   -4.8288    0.0000 C   0  0
  1  2  2  0
  1  3  1  0
  5  4  1  0
  6  5  1  0
  4  6  1  0
  7  3  1  0
  5  7  1  0
  3  8  1  0
  8  9  1  0
  9  5  1  0
  8 10  1  1
 10 11  1  0
 11 12  1  0
 12 13  2  0
 13 14  1  0
 14 15  2  0
 15 16  1  0
 16 17  2  0
 17 12  1  0
 15 18  1  0
 18 19  1  0
 18 20  1  0
 18 21  1  0
  1 22  1  0
 22 23  2  0
 23 24  1  0
 24 25  2  0
 25 26  1  0
 26 27  2  0
 27 22  1  0
 28 29  2  0
 29 30  1  0
 30 31  2  0
 31 32  1  0
 32 33  2  0
 33 28  1  0
 27 28  1  0
 24 34  1  0
M  END
> <chembl_id>
CHEMBL2381084

$$$$

  SciTegic10311316262D

 35 39  0  0  0  0            999 V2000
    6.4924  -11.4299    0.0000 C   0  0
    7.1942  -11.8486    0.0000 O   0  0
    6.5040  -10.6128    0.0000 N   0  0
    5.3448   -9.1294    0.0000 C   0  0
    6.1372   -9.3440    0.0000 C   0  0
    5.9268   -8.5505    0.0000 C   0  0
    5.8612  -10.1126    0.0000 C   0  0
    7.1774  -10.1548    0.0000 C   0  0  1  0  0  0
    6.9490   -9.3729    0.0000 C   0  0
    7.8847  -10.5642    0.0000 C   0  0
    8.5928  -10.1564    0.0000 N   0  0
    9.3001  -10.5658    0.0000 C   0  0
    9.2966  -11.3833    0.0000 N   0  0
   10.0030  -11.7926    0.0000 C   0  0
   10.7122  -11.3847    0.0000 C   0  0
   10.7105  -10.5633    0.0000 C   0  0
   10.0035  -10.1577    0.0000 C   0  0
   11.4200  -11.7932    0.0000 C   0  0
   11.4201  -12.6104    0.0000 F   0  0
   12.1276  -11.3845    0.0000 F   0  0
   12.1217  -12.2001    0.0000 F   0  0
    5.7789  -11.8284    0.0000 C   0  0
    5.0813  -11.4082    0.0000 C   0  0
    4.3684  -11.8060    0.0000 C   0  0
    4.3563  -12.6240    0.0000 C   0  0
    5.0631  -13.0425    0.0000 C   0  0
    5.7731  -12.6423    0.0000 C   0  0
    6.4742  -13.0544    0.0000 C   0  0
    6.4657  -13.8726    0.0000 N   0  0
    7.1690  -14.2873    0.0000 C   0  0
    7.8813  -13.8848    0.0000 C   0  0
    7.8858  -13.0634    0.0000 C   0  0
    7.1819  -12.6525    0.0000 N   0  0
    3.6667  -11.3870    0.0000 C   0  0
    2.9606  -10.9706    0.0000 N   0  0
  1  2  2  0
  1  3  1  0
  5  4  1  0
  6  5  1  0
  4  6  1  0
  7  3  1  0
  5  7  1  0
  3  8  1  0
  8  9  1  0
  9  5  1  0
  8 10  1  1
 10 11  1  0
 11 12  1  0
 12 13  2  0
 13 14  1  0
 14 15  2  0
 15 16  1  0
 16 17  2  0
 17 12  1  0
 15 18  1  0
 18 19  1  0
 18 20  1  0
 18 21  1  0
  1 22  1  0
 22 23  2  0
 23 24  1  0
 24 25  2  0
 25 26  1  0
 26 27  2  0
 27 22  1  0
 28 29  2  0
 29 30  1  0
 30 31  2  0
 31 32  1  0
 32 33  2  0
 33 28  1  0
 27 28  1  0
 24 34  1  0
 34 35  3  0
M  END
> <chembl_id>
CHEMBL2381085

$$$$

  SciTegic10311316262D

 37 41  0  0  0  0            999 V2000
   17.2727  -11.6446    0.0000 C   0  0
   17.9745  -12.0632    0.0000 O   0  0
   17.2843  -10.8274    0.0000 N   0  0
   16.1251   -9.3440    0.0000 C   0  0
   16.9175   -9.5587    0.0000 C   0  0
   16.7072   -8.7651    0.0000 C   0  0
   16.6415  -10.3272    0.0000 C   0  0
   17.9578  -10.3694    0.0000 C   0  0  1  0  0  0
   17.7293   -9.5875    0.0000 C   0  0
   18.6650  -10.7788    0.0000 C   0  0
   19.3732  -10.3710    0.0000 N   0  0
   20.0804  -10.7804    0.0000 C   0  0
   20.0769  -11.5979    0.0000 N   0  0
   20.7834  -12.0072    0.0000 C   0  0
   21.4925  -11.5994    0.0000 C   0  0
   21.4908  -10.7779    0.0000 C   0  0
   20.7838  -10.3723    0.0000 C   0  0
   22.2003  -12.0078    0.0000 C   0  0
   22.2004  -12.8250    0.0000 F   0  0
   22.9079  -11.5991    0.0000 F   0  0
   22.9020  -12.4147    0.0000 F   0  0
   16.5592  -12.0430    0.0000 C   0  0
   15.8616  -11.6228    0.0000 N   0  0
   15.1487  -12.0206    0.0000 C   0  0
   15.1366  -12.8386    0.0000 C   0  0
   15.8434  -13.2571    0.0000 C   0  0
   16.5535  -12.8569    0.0000 C   0  0
   14.4471  -11.6016    0.0000 C   0  0
   17.2546  -13.2690    0.0000 C   0  0
   17.2461  -14.0872    0.0000 N   0  0
   17.9493  -14.5019    0.0000 C   0  0
   18.6616  -14.0995    0.0000 C   0  0
   18.6661  -13.2781    0.0000 C   0  0
   17.9622  -12.8671    0.0000 N   0  0
   14.4591  -10.7845    0.0000 F   0  0
   13.7334  -11.9998    0.0000 F   0  0
   13.7354  -11.1889    0.0000 F   0  0
  1  2  2  0
  1  3  1  0
  5  4  1  0
  6  5  1  0
  4  6  1  0
  7  3  1  0
  5  7  1  0
  3  8  1  0
  8  9  1  0
  9  5  1  0
  8 10  1  1
 10 11  1  0
 11 12  1  0
 12 13  2  0
 13 14  1  0
 14 15  2  0
 15 16  1  0
 16 17  2  0
 17 12  1  0
 15 18  1  0
 18 19  1  0
 18 20  1  0
 18 21  1  0
  1 22  1  0
 22 23  2  0
 23 24  1  0
 24 25  2  0
 25 26  1  0
 26 27  2  0
 27 22  1  0
 24 28  1  0
 29 30  2  0
 30 31  1  0
 31 32  2  0
 32 33  1  0
 33 34  2  0
 34 29  1  0
 27 29  1  0
 28 35  1  0
 28 36  1  0
 28 37  1  0
M  END
> <chembl_id>
CHEMBL2381077

$$$$

  SciTegic10311316262D

 34 38  0  0  0  0            999 V2000
    5.7907  -11.5826    0.0000 C   0  0
    6.4925  -12.0013    0.0000 O   0  0
    5.8024  -10.7655    0.0000 N   0  0
    4.6431   -9.2821    0.0000 C   0  0
    5.4356   -9.4968    0.0000 C   0  0
    5.2252   -8.7032    0.0000 C   0  0
    5.1595  -10.2653    0.0000 C   0  0
    6.4758  -10.3075    0.0000 C   0  0  1  0  0  0
    6.2474   -9.5256    0.0000 C   0  0
    7.1830  -10.7169    0.0000 C   0  0
    7.8912  -10.3091    0.0000 N   0  0
    8.5985  -10.7185    0.0000 C   0  0
    8.5950  -11.5360    0.0000 N   0  0
    9.3014  -11.9453    0.0000 C   0  0
   10.0106  -11.5375    0.0000 C   0  0
   10.0089  -10.7160    0.0000 C   0  0
    9.3019  -10.3104    0.0000 C   0  0
   10.7183  -11.9459    0.0000 C   0  0
   10.7185  -12.7631    0.0000 F   0  0
   11.4260  -11.5372    0.0000 F   0  0
   11.4200  -12.3528    0.0000 F   0  0
    5.0773  -11.9811    0.0000 C   0  0
    4.3797  -11.5609    0.0000 N   0  0
    3.6667  -11.9587    0.0000 C   0  0
    3.6546  -12.7767    0.0000 C   0  0
    4.3614  -13.1952    0.0000 C   0  0
    5.0715  -12.7950    0.0000 C   0  0
    2.9651  -11.5397    0.0000 C   0  0
    5.7726  -13.2071    0.0000 C   0  0
    5.7641  -14.0253    0.0000 C   0  0
    6.4674  -14.4400    0.0000 C   0  0
    7.1796  -14.0376    0.0000 C   0  0
    7.1842  -13.2161    0.0000 C   0  0
    6.4803  -12.8052    0.0000 C   0  0
  1  2  2  0
  1  3  1  0
  5  4  1  0
  6  5  1  0
  4  6  1  0
  7  3  1  0
  5  7  1  0
  3  8  1  0
  8  9  1  0
  9  5  1  0
  8 10  1  1
 10 11  1  0
 11 12  1  0
 12 13  2  0
 13 14  1  0
 14 15  2  0
 15 16  1  0
 16 17  2  0
 17 12  1  0
 15 18  1  0
 18 19  1  0
 18 20  1  0
 18 21  1  0
  1 22  1  0
 22 23  2  0
 23 24  1  0
 24 25  2  0
 25 26  1  0
 26 27  2  0
 27 22  1  0
 24 28  1  0
 29 30  2  0
 30 31  1  0
 31 32  2  0
 32 33  1  0
 33 34  2  0
 34 29  1  0
 27 29  1  0
M  END
> <chembl_id>
CHEMBL2381076

$$$$

  SciTegic10311316262D

 34 38  0  0  0  0            999 V2000
    5.7618  -17.8602    0.0000 C   0  0
    6.4637  -18.2788    0.0000 O   0  0
    5.7735  -17.0431    0.0000 N   0  0
    4.6142  -15.5597    0.0000 C   0  0
    5.4067  -15.7743    0.0000 C   0  0
    5.1963  -14.9807    0.0000 C   0  0
    5.1307  -16.5428    0.0000 C   0  0
    6.4469  -16.5850    0.0000 C   0  0  1  0  0  0
    6.2185  -15.8031    0.0000 C   0  0
    7.1542  -16.9944    0.0000 C   0  0
    7.8623  -16.5866    0.0000 N   0  0
    8.5696  -16.9960    0.0000 C   0  0
    8.5661  -17.8135    0.0000 N   0  0
    9.2725  -18.2228    0.0000 C   0  0
    9.9817  -17.8150    0.0000 C   0  0
    9.9800  -16.9935    0.0000 C   0  0
    9.2730  -16.5879    0.0000 C   0  0
   10.6895  -18.2234    0.0000 C   0  0
   10.6896  -19.0406    0.0000 F   0  0
   11.3971  -17.8147    0.0000 F   0  0
   11.3912  -18.6303    0.0000 F   0  0
    5.0484  -18.2586    0.0000 C   0  0
    4.3508  -17.8384    0.0000 N   0  0
    3.6378  -18.2362    0.0000 C   0  0
    3.6257  -19.0542    0.0000 C   0  0
    4.3325  -19.4727    0.0000 C   0  0
    5.0425  -19.0730    0.0000 C   0  0
    2.9362  -17.8172    0.0000 C   0  0
    5.6815  -19.5778    0.0000 N   0  0
    5.6446  -20.3944    0.0000 N   0  0
    6.4108  -20.6810    0.0000 C   0  0
    6.9192  -20.0398    0.0000 C   0  0
    6.4654  -19.3590    0.0000 C   0  0
    7.7357  -20.0734    0.0000 C   0  0
  1  2  2  0
  1  3  1  0
  5  4  1  0
  6  5  1  0
  4  6  1  0
  7  3  1  0
  5  7  1  0
  3  8  1  0
  8  9  1  0
  9  5  1  0
  8 10  1  1
 10 11  1  0
 11 12  1  0
 12 13  2  0
 13 14  1  0
 14 15  2  0
 15 16  1  0
 16 17  2  0
 17 12  1  0
 15 18  1  0
 18 19  1  0
 18 20  1  0
 18 21  1  0
  1 22  1  0
 22 23  2  0
 23 24  1  0
 24 25  2  0
 25 26  1  0
 26 27  2  0
 27 22  1  0
 24 28  1  0
 30 31  2  0
 29 30  1  0
 31 32  1  0
 32 33  2  0
 33 29  1  0
 27 29  1  0
 32 34  1  0
M  END
> <chembl_id>
CHEMBL2381078

$$$$

  SciTegic10311316262D

 31 35  0  0  0  0            999 V2000
    4.8082  -11.0734    0.0000 C   0  0
    5.2209  -11.7832    0.0000 C   0  0
    5.6294  -11.0709    0.0000 C   0  0
    4.5193  -12.1960    0.0000 C   0  0
    4.5193  -13.0132    0.0000 C   0  0
    5.2246  -13.4176    0.0000 N   0  0
    5.9299  -13.0132    0.0000 C   0  0  1  0  0  0
    5.9299  -12.1960    0.0000 C   0  0
    5.2246  -14.2348    0.0000 C   0  0
    4.5169  -14.6434    0.0000 C   0  0
    5.9323  -14.6434    0.0000 O   0  0
    6.6370  -13.4228    0.0000 C   0  0
    7.3453  -13.0152    0.0000 N   0  0
    8.0524  -13.4248    0.0000 C   0  0
    3.8105  -14.2304    0.0000 C   0  0
    3.1033  -14.6383    0.0000 C   0  0
    3.1028  -15.4564    0.0000 C   0  0
    3.8155  -15.8648    0.0000 C   0  0
    4.5196  -15.4546    0.0000 C   0  0
    2.3957  -14.2294    0.0000 C   0  0
    8.0483  -14.2400    0.0000 N   0  0
    8.7546  -14.6495    0.0000 C   0  0
    9.4638  -14.2419    0.0000 C   0  0
    9.4624  -13.4205    0.0000 C   0  0
    8.7555  -13.0147    0.0000 C   0  0
   10.1715  -14.6506    0.0000 Cl  0  0
    5.1915  -15.9126    0.0000 N   0  0
    5.2146  -16.7297    0.0000 N   0  0
    5.9998  -16.9594    0.0000 C   0  0
    6.4598  -16.2826    0.0000 C   0  0
    5.9573  -15.6369    0.0000 N   0  0
  2  1  1  0
  3  2  1  0
  1  3  1  0
  4  5  1  0
  4  2  1  0
  5  6  1  0
  6  7  1  0
  7  8  1  0
  8  2  1  0
  6  9  1  0
  9 10  1  0
  9 11  2  0
  7 12  1  1
 12 13  1  0
 13 14  1  0
 10 15  2  0
 15 16  1  0
 16 17  2  0
 17 18  1  0
 18 19  2  0
 19 10  1  0
 16 20  1  0
 14 21  2  0
 21 22  1  0
 22 23  2  0
 23 24  1  0
 24 25  2  0
 25 14  1  0
 23 26  1  0
 28 29  2  0
 27 28  1  0
 29 30  1  0
 30 31  2  0
 31 27  1  0
 19 27  1  0
M  END
> <chembl_id>
CHEMBL2381094

$$$$

  SciTegic10311316262D

 31 35  0  0  0  0            999 V2000
    5.0270  -19.9510    0.0000 C   0  0
    5.4397  -20.6609    0.0000 C   0  0
    5.8481  -19.9485    0.0000 C   0  0
    4.7381  -21.0736    0.0000 C   0  0
    4.7381  -21.8908    0.0000 C   0  0
    5.4433  -22.2953    0.0000 N   0  0
    6.1486  -21.8908    0.0000 C   0  0  1  0  0  0
    6.1486  -21.0736    0.0000 C   0  0
    5.4433  -23.1125    0.0000 C   0  0
    4.7356  -23.5211    0.0000 C   0  0
    6.1510  -23.5211    0.0000 O   0  0
    6.8557  -22.3004    0.0000 C   0  0
    7.5640  -21.8929    0.0000 N   0  0
    8.2711  -22.3025    0.0000 C   0  0
    4.0292  -23.1081    0.0000 C   0  0
    3.3220  -23.5160    0.0000 C   0  0
    3.3216  -24.3341    0.0000 C   0  0
    4.0342  -24.7425    0.0000 C   0  0
    4.7384  -24.3323    0.0000 C   0  0
    2.6145  -23.1071    0.0000 C   0  0
    8.2670  -23.1177    0.0000 N   0  0
    8.9733  -23.5272    0.0000 C   0  0
    9.6826  -23.1196    0.0000 C   0  0
    9.6812  -22.2982    0.0000 C   0  0
    8.9743  -21.8923    0.0000 C   0  0
    5.4102  -24.7903    0.0000 N   0  0
    5.4333  -25.6074    0.0000 N   0  0
    6.2186  -25.8371    0.0000 C   0  0
    6.6785  -25.1602    0.0000 C   0  0
    6.1760  -24.5146    0.0000 N   0  0
    8.9717  -24.3444    0.0000 C   0  0
  2  1  1  0
  3  2  1  0
  1  3  1  0
  4  5  1  0
  4  2  1  0
  5  6  1  0
  6  7  1  0
  7  8  1  0
  8  2  1  0
  6  9  1  0
  9 10  1  0
  9 11  2  0
  7 12  1  1
 12 13  1  0
 13 14  1  0
 10 15  2  0
 15 16  1  0
 16 17  2  0
 17 18  1  0
 18 19  2  0
 19 10  1  0
 16 20  1  0
 14 21  2  0
 21 22  1  0
 22 23  2  0
 23 24  1  0
 24 25  2  0
 25 14  1  0
 27 28  2  0
 26 27  1  0
 28 29  1  0
 29 30  2  0
 30 26  1  0
 19 26  1  0
 22 31  1  0
M  END
> <chembl_id>
CHEMBL2381095

$$$$

  SciTegic10311316262D

 30 34  0  0  0  0            999 V2000
   15.9329  -28.1918    0.0000 N   0  0
   15.4529  -28.8534    0.0000 C   0  0
   15.9351  -29.5143    0.0000 S   0  0
   16.7127  -29.2582    0.0000 C   0  0
   16.7078  -28.4405    0.0000 C   0  0
   14.6357  -28.8545    0.0000 C   0  0
   17.4361  -29.6341    0.0000 C   0  0
   17.4716  -30.4516    0.0000 C   0  0
   18.1961  -30.8279    0.0000 C   0  0
   18.8857  -30.3878    0.0000 C   0  0
   18.8461  -29.5673    0.0000 C   0  0
   18.1211  -29.1948    0.0000 C   0  0
   17.4213  -28.0420    0.0000 C   0  0
   18.1231  -28.4607    0.0000 O   0  0
   17.4329  -27.2249    0.0000 N   0  0
   16.2737  -25.7415    0.0000 C   0  0
   17.0661  -25.9561    0.0000 C   0  0
   16.8557  -25.1626    0.0000 C   0  0
   16.7901  -26.7247    0.0000 C   0  0
   18.1063  -26.7669    0.0000 C   0  0  1  0  0  0
   17.8779  -25.9850    0.0000 C   0  0
   18.8136  -27.1763    0.0000 C   0  0
   19.5218  -26.7685    0.0000 N   0  0
   20.2290  -27.1779    0.0000 C   0  0
   20.2255  -27.9954    0.0000 N   0  0
   20.9319  -28.4047    0.0000 C   0  0
   21.6411  -27.9968    0.0000 C   0  0
   21.6394  -27.1754    0.0000 C   0  0
   20.9324  -26.7698    0.0000 N   0  0
   20.9306  -29.2219    0.0000 C   0  0
  2  3  1  0
  1  2  2  0
  3  4  1  0
  4  5  2  0
  5  1  1  0
  2  6  1  0
  7  8  2  0
  8  9  1  0
  9 10  2  0
 10 11  1  0
 11 12  2  0
 12  7  1  0
  4  7  1  0
  5 13  1  0
 13 14  2  0
 13 15  1  0
 17 16  1  0
 18 17  1  0
 16 18  1  0
 19 15  1  0
 17 19  1  0
 15 20  1  0
 20 21  1  0
 21 17  1  0
 20 22  1  1
 22 23  1  0
 23 24  1  0
 24 25  2  0
 25 26  1  0
 26 27  2  0
 27 28  1  0
 28 29  2  0
 29 24  1  0
 26 30  1  0
M  END
> <chembl_id>
CHEMBL2381073

$$$$

  SciTegic10311316262D

 32 36  0  0  0  0            999 V2000
   17.4625  -12.3338    0.0000 C   0  0
   18.1643  -12.7524    0.0000 O   0  0
   17.4742  -11.5167    0.0000 N   0  0
   16.3149  -10.0333    0.0000 C   0  0
   17.1074  -10.2479    0.0000 C   0  0
   16.8970   -9.4543    0.0000 C   0  0
   16.8313  -11.0165    0.0000 C   0  0
   18.1476  -11.0586    0.0000 C   0  0  1  0  0  0
   17.9192  -10.2768    0.0000 C   0  0
   18.8549  -11.4680    0.0000 C   0  0
   19.5630  -11.0602    0.0000 N   0  0
   20.2703  -11.4696    0.0000 C   0  0
   20.2668  -12.2871    0.0000 N   0  0
   20.9732  -12.6965    0.0000 C   0  0
   21.6824  -12.2886    0.0000 C   0  0
   21.6807  -11.4672    0.0000 C   0  0
   20.9737  -11.0616    0.0000 C   0  0
   16.7491  -12.7323    0.0000 C   0  0
   16.0515  -12.3120    0.0000 N   0  0
   15.3385  -12.7098    0.0000 C   0  0
   15.3264  -13.5278    0.0000 C   0  0
   16.0332  -13.9464    0.0000 C   0  0
   16.7433  -13.5462    0.0000 C   0  0
   17.4444  -13.9582    0.0000 C   0  0
   17.4359  -14.7765    0.0000 N   0  0
   18.1392  -15.1912    0.0000 C   0  0
   18.8514  -14.7887    0.0000 C   0  0
   18.8560  -13.9673    0.0000 C   0  0
   18.1521  -13.5563    0.0000 N   0  0
   14.6369  -12.2909    0.0000 C   0  0
   22.3861  -11.0576    0.0000 C   0  0
   23.0928  -10.6473    0.0000 N   0  0
  1  2  2  0
  1  3  1  0
  5  4  1  0
  6  5  1  0
  4  6  1  0
  7  3  1  0
  5  7  1  0
  3  8  1  0
  8  9  1  0
  9  5  1  0
  8 10  1  1
 10 11  1  0
 11 12  1  0
 12 13  2  0
 13 14  1  0
 14 15  2  0
 15 16  1  0
 16 17  2  0
 17 12  1  0
  1 18  1  0
 18 19  2  0
 19 20  1  0
 20 21  2  0
 21 22  1  0
 22 23  2  0
 23 18  1  0
 24 25  2  0
 25 26  1  0
 26 27  2  0
 27 28  1  0
 28 29  2  0
 29 24  1  0
 23 24  1  0
 20 30  1  0
 31 32  3  0
 16 31  1  0
M  END
> <chembl_id>
CHEMBL2381086

$$$$

  SciTegic10311316262D

 30 34  0  0  0  0            999 V2000
   16.9340  -21.1273    0.0000 C   0  0
   17.7264  -21.3419    0.0000 C   0  0
   17.5161  -20.5483    0.0000 C   0  0
   17.4504  -22.1105    0.0000 C   0  0
   18.0933  -22.6107    0.0000 N   0  0
   18.7667  -22.1526    0.0000 C   0  0  1  0  0  0
   18.5383  -21.3708    0.0000 C   0  0
   18.0671  -23.4275    0.0000 C   0  0
   17.3466  -23.8132    0.0000 C   0  0
   18.7613  -23.8585    0.0000 O   0  0
   19.4739  -22.5620    0.0000 C   0  0
   20.1821  -22.1542    0.0000 N   0  0
   20.8894  -22.5636    0.0000 C   0  0
   20.8859  -23.3811    0.0000 N   0  0
   21.5923  -23.7904    0.0000 C   0  0
   22.3014  -23.3826    0.0000 C   0  0
   22.2997  -22.5612    0.0000 C   0  0
   21.5928  -22.1556    0.0000 C   0  0
   16.6556  -23.3810    0.0000 C   0  0
   15.9356  -23.7660    0.0000 C   0  0
   15.9090  -24.5836    0.0000 C   0  0
   16.6082  -25.0147    0.0000 C   0  0
   17.3253  -24.6275    0.0000 C   0  0
   15.2416  -23.3346    0.0000 C   0  0
   17.9772  -25.1156    0.0000 N   0  0
   17.9666  -25.9329    0.0000 N   0  0
   18.7417  -26.1948    0.0000 C   0  0
   19.2291  -25.5375    0.0000 C   0  0
   18.7536  -24.8717    0.0000 N   0  0
   21.5910  -24.6076    0.0000 C   0  0
  2  1  1  0
  3  2  1  0
  1  3  1  0
  4  5  1  0
  2  4  1  0
  5  6  1  0
  6  7  1  0
  7  2  1  0
  5  8  1  0
  8  9  1  0
  8 10  2  0
  6 11  1  1
 11 12  1  0
 12 13  1  0
 13 14  2  0
 14 15  1  0
 15 16  2  0
 16 17  1  0
 17 18  2  0
 18 13  1  0
  9 19  2  0
 19 20  1  0
 20 21  2  0
 21 22  1  0
 22 23  2  0
 23  9  1  0
 20 24  1  0
 26 27  2  0
 25 26  1  0
 27 28  1  0
 28 29  2  0
 29 25  1  0
 23 25  1  0
 15 30  1  0
M  END
> <chembl_id>
CHEMBL2381096

$$$$

  SciTegic10311316262D

 30 34  0  0  0  0            999 V2000
    4.1497  -21.3860    0.0000 N   0  0
    3.6697  -22.0476    0.0000 C   0  0
    4.1519  -22.7085    0.0000 S   0  0
    4.9295  -22.4524    0.0000 C   0  0
    4.9246  -21.6347    0.0000 C   0  0
    2.8525  -22.0487    0.0000 C   0  0
    5.6528  -22.8283    0.0000 C   0  0
    5.6883  -23.6458    0.0000 C   0  0
    6.4129  -24.0221    0.0000 C   0  0
    7.1024  -23.5820    0.0000 C   0  0
    7.0629  -22.7615    0.0000 C   0  0
    6.3379  -22.3890    0.0000 C   0  0
    5.6380  -21.2362    0.0000 C   0  0
    6.3398  -21.6549    0.0000 O   0  0
    5.6497  -20.4191    0.0000 N   0  0
    4.4904  -18.9357    0.0000 C   0  0
    5.2829  -19.1503    0.0000 C   0  0
    5.0725  -18.3568    0.0000 C   0  0
    5.0068  -19.9189    0.0000 C   0  0
    6.3231  -19.9611    0.0000 C   0  0  1  0  0  0
    6.0947  -19.1792    0.0000 C   0  0
    7.0303  -20.3705    0.0000 C   0  0
    7.7385  -19.9627    0.0000 N   0  0
    8.4458  -20.3721    0.0000 C   0  0
    8.4423  -21.1896    0.0000 N   0  0
    9.1487  -21.5989    0.0000 C   0  0
    9.8578  -21.1910    0.0000 C   0  0
    9.8562  -20.3696    0.0000 C   0  0
    9.1492  -19.9640    0.0000 C   0  0
    9.1474  -22.4161    0.0000 C   0  0
  2  3  1  0
  1  2  2  0
  3  4  1  0
  4  5  2  0
  5  1  1  0
  2  6  1  0
  7  8  2  0
  8  9  1  0
  9 10  2  0
 10 11  1  0
 11 12  2  0
 12  7  1  0
  4  7  1  0
  5 13  1  0
 13 14  2  0
 13 15  1  0
 17 16  1  0
 18 17  1  0
 16 18  1  0
 19 15  1  0
 17 19  1  0
 15 20  1  0
 20 21  1  0
 21 17  1  0
 20 22  1  1
 22 23  1  0
 23 24  1  0
 24 25  2  0
 25 26  1  0
 26 27  2  0
 27 28  1  0
 28 29  2  0
 29 24  1  0
 26 30  1  0
M  END
> <chembl_id>
CHEMBL2381101

$$$$

  SciTegic10311316262D

 33 37  0  0  0  0            999 V2000
    3.7849  -25.6111    0.0000 C   0  0
    4.4867  -26.0297    0.0000 O   0  0
    3.7965  -24.7940    0.0000 N   0  0
    2.6373  -23.3106    0.0000 C   0  0
    3.4297  -23.5252    0.0000 C   0  0
    3.2194  -22.7316    0.0000 C   0  0
    3.1537  -24.2938    0.0000 C   0  0
    4.4700  -24.3359    0.0000 C   0  0  1  0  0  0
    4.2415  -23.5541    0.0000 C   0  0
    5.1772  -24.7453    0.0000 C   0  0
    5.8854  -24.3375    0.0000 N   0  0
    6.5926  -24.7469    0.0000 C   0  0
    6.5892  -25.5644    0.0000 N   0  0
    7.2956  -25.9737    0.0000 C   0  0
    8.0047  -25.5659    0.0000 C   0  0
    8.0030  -24.7445    0.0000 C   0  0
    7.2960  -24.3389    0.0000 C   0  0
    8.7125  -25.9744    0.0000 C   0  0
    8.7127  -26.7916    0.0000 F   0  0
    9.4201  -25.5656    0.0000 F   0  0
    9.4142  -26.3812    0.0000 F   0  0
    3.0714  -26.0096    0.0000 C   0  0
    2.3739  -25.5893    0.0000 N   0  0
    1.6609  -25.9871    0.0000 C   0  0
    1.6488  -26.8051    0.0000 C   0  0
    2.3556  -27.2237    0.0000 C   0  0
    3.0657  -26.8235    0.0000 C   0  0
    3.7668  -27.2355    0.0000 C   0  0
    3.7583  -28.0538    0.0000 N   0  0
    4.4616  -28.4684    0.0000 C   0  0
    5.1738  -28.0660    0.0000 C   0  0
    5.1783  -27.2446    0.0000 C   0  0
    4.4745  -26.8336    0.0000 N   0  0
  1  2  2  0
  1  3  1  0
  5  4  1  0
  6  5  1  0
  4  6  1  0
  7  3  1  0
  5  7  1  0
  3  8  1  0
  8  9  1  0
  9  5  1  0
  8 10  1  1
 10 11  1  0
 11 12  1  0
 12 13  2  0
 13 14  1  0
 14 15  2  0
 15 16  1  0
 16 17  2  0
 17 12  1  0
 15 18  1  0
 18 19  1  0
 18 20  1  0
 18 21  1  0
  1 22  1  0
 22 23  2  0
 23 24  1  0
 24 25  2  0
 25 26  1  0
 26 27  2  0
 27 22  1  0
 28 29  2  0
 29 30  1  0
 30 31  2  0
 31 32  1  0
 32 33  2  0
 33 28  1  0
 27 28  1  0
M  END
> <chembl_id>
CHEMBL2381080

$$$$
