
  SciTegic12091613532D

 34 37  0  0  0  0            999 V2000
    0.2433   -2.0726    0.0000 O   0  0
    1.2964   -1.4973    0.0000 S   0  0
    2.3495   -2.0727    0.0000 O   0  0
   -2.6111    0.7486    0.0000 C   0  0
   -2.6111   -0.7486    0.0000 C   0  0
   -1.2964   -1.4973    0.0000 C   0  0
   -1.2964    1.4973    0.0000 C   0  0
    0.0000    0.7486    0.0000 C   0  0
    0.0000   -0.7486    0.0000 C   0  0
    2.5929   -0.7486    0.0000 N   0  0
    2.5929    0.7486    0.0000 C   0  0
    1.2964    1.4973    0.0000 N   0  0
    3.6321    1.3486    0.0000 O   0  0
    3.8926   -1.4990    0.0000 C   0  0
    5.1929   -0.7510    0.0000 C   0  0
    6.4908   -1.5029    0.0000 C   0  0
    6.4885   -3.0029    0.0000 N   0  0
    5.1883   -3.7510    0.0000 C   0  0
    3.8904   -2.9990    0.0000 C   0  0
    1.2995    2.9981    0.0000 C   0  0
    2.6003    3.7467    0.0000 C   0  0
    2.6056    5.2467    0.0000 C   0  0
    3.9072    5.9922    0.0000 C   0  0
    5.2037    5.2377    0.0000 C   0  0
    5.1985    3.7377    0.0000 C   0  0
    3.8969    2.9922    0.0000 C   0  0
    3.8927    1.7922    0.0000 F   0  0
    1.5685    5.8503    0.0000 F   0  0
    5.1830   -5.2518    0.0000 O   0  0
    4.1420   -5.8487    0.0000 C   0  0
    6.5076    5.9810    0.0000 O   0  0
    7.5438    5.3759    0.0000 C   0  0
    7.7932   -0.7572    0.0000 O   0  0
    8.8306   -1.3602    0.0000 C   0  0
  2  1  2  0
  3  2  2  0
  4  5  2  0
  5  6  1  0
  6  9  2  0
  8  7  2  0
  7  4  1  0
  8  9  1  0
  8 12  1  0
  9  2  1  0
  2 10  1  0
 10 11  1  0
 11 12  1  0
 11 13  2  0
 10 14  1  0
 14 15  2  0
 15 16  1  0
 16 17  2  0
 17 18  1  0
 18 19  2  0
 19 14  1  0
 12 20  1  0
 20 21  1  0
 21 22  2  0
 22 23  1  0
 23 24  2  0
 24 25  1  0
 25 26  2  0
 26 21  1  0
 26 27  1  0
 22 28  1  0
 18 29  1  0
 29 30  1  0
 24 31  1  0
 31 32  1  0
 16 33  1  0
 33 34  1  0
M  END
> <chembl_id>
CHEMBL3740971

$$$$

  SciTegic12091613532D

 34 37  0  0  0  0            999 V2000
    0.2433   -2.0726    0.0000 O   0  0
    1.2964   -1.4973    0.0000 S   0  0
    2.3495   -2.0727    0.0000 O   0  0
   -2.6111    0.7486    0.0000 C   0  0
   -2.6111   -0.7486    0.0000 C   0  0
   -1.2964   -1.4973    0.0000 C   0  0
   -1.2964    1.4973    0.0000 N   0  0
    0.0000    0.7486    0.0000 C   0  0
    0.0000   -0.7486    0.0000 C   0  0
    2.5929   -0.7486    0.0000 N   0  0
    2.5929    0.7486    0.0000 C   0  0
    1.2964    1.4973    0.0000 N   0  0
    3.6321    1.3486    0.0000 O   0  0
    3.8926   -1.4990    0.0000 C   0  0
    5.1929   -0.7510    0.0000 C   0  0
    6.4908   -1.5029    0.0000 C   0  0
    6.4885   -3.0029    0.0000 C   0  0
    5.1883   -3.7510    0.0000 N   0  0
    3.8904   -2.9990    0.0000 C   0  0
    1.2995    2.9981    0.0000 C   0  0
    2.6003    3.7467    0.0000 C   0  0
    2.6056    5.2467    0.0000 C   0  0
    3.9072    5.9922    0.0000 C   0  0
    5.2037    5.2377    0.0000 C   0  0
    5.1985    3.7377    0.0000 C   0  0
    3.8969    2.9922    0.0000 C   0  0
    3.8927    1.7922    0.0000 F   0  0
    1.5685    5.8503    0.0000 F   0  0
    6.5076    5.9810    0.0000 O   0  0
    7.5438    5.3759    0.0000 C   0  0
    7.7856   -3.7580    0.0000 O   0  0
    7.7820   -4.9580    0.0000 C   0  0
    7.7901   -0.7518    0.0000 N   0  0
    7.7902    0.4482    0.0000 C   0  0
  2  1  2  0
  3  2  2  0
  4  5  2  0
  5  6  1  0
  6  9  2  0
  8  7  2  0
  7  4  1  0
  8  9  1  0
  8 12  1  0
  9  2  1  0
  2 10  1  0
 10 11  1  0
 11 12  1  0
 11 13  2  0
 10 14  1  0
 14 15  2  0
 15 16  1  0
 16 17  2  0
 17 18  1  0
 18 19  2  0
 19 14  1  0
 12 20  1  0
 20 21  1  0
 21 22  2  0
 22 23  1  0
 23 24  2  0
 24 25  1  0
 25 26  2  0
 26 21  1  0
 26 27  1  0
 22 28  1  0
 24 29  1  0
 29 30  1  0
 17 31  1  0
 31 32  1  0
 16 33  1  0
 33 34  1  0
M  END
> <chembl_id>
CHEMBL3739451

$$$$

  SciTegic12091613532D

 34 37  0  0  0  0            999 V2000
    0.2433   -2.0726    0.0000 O   0  0
    1.2964   -1.4973    0.0000 S   0  0
    2.3495   -2.0727    0.0000 O   0  0
   -2.6111    0.7486    0.0000 C   0  0
   -2.6111   -0.7486    0.0000 C   0  0
   -1.2964   -1.4973    0.0000 C   0  0
   -1.2964    1.4973    0.0000 C   0  0
    0.0000    0.7486    0.0000 C   0  0
    0.0000   -0.7486    0.0000 C   0  0
    2.5929   -0.7486    0.0000 N   0  0
    2.5929    0.7486    0.0000 C   0  0
    1.2964    1.4973    0.0000 N   0  0
    3.6321    1.3486    0.0000 O   0  0
    3.8926   -1.4990    0.0000 C   0  0
    5.1929   -0.7510    0.0000 C   0  0
    6.4908   -1.5029    0.0000 C   0  0
    6.4885   -3.0029    0.0000 C   0  0
    5.1883   -3.7510    0.0000 C   0  0
    3.8904   -2.9990    0.0000 N   0  0
    1.2995    2.9981    0.0000 C   0  0
    2.6003    3.7467    0.0000 C   0  0
    2.6056    5.2467    0.0000 C   0  0
    3.9072    5.9922    0.0000 C   0  0
    5.2037    5.2377    0.0000 C   0  0
    5.1985    3.7377    0.0000 C   0  0
    3.8969    2.9922    0.0000 C   0  0
    3.8927    1.7922    0.0000 F   0  0
    1.5685    5.8503    0.0000 F   0  0
    6.5076    5.9810    0.0000 O   0  0
    7.5438    5.3759    0.0000 C   0  0
    7.7886   -3.7527    0.0000 O   0  0
    8.8279   -3.1528    0.0000 C   0  0
    5.1830   -5.2518    0.0000 O   0  0
    4.1420   -5.8487    0.0000 C   0  0
  2  1  2  0
  3  2  2  0
  4  5  2  0
  5  6  1  0
  6  9  2  0
  8  7  2  0
  7  4  1  0
  8  9  1  0
  8 12  1  0
  9  2  1  0
  2 10  1  0
 10 11  1  0
 11 12  1  0
 11 13  2  0
 10 14  1  0
 14 15  2  0
 15 16  1  0
 16 17  2  0
 17 18  1  0
 18 19  2  0
 19 14  1  0
 12 20  1  0
 20 21  1  0
 21 22  2  0
 22 23  1  0
 23 24  2  0
 24 25  1  0
 25 26  2  0
 26 21  1  0
 26 27  1  0
 22 28  1  0
 24 29  1  0
 29 30  1  0
 17 31  1  0
 31 32  1  0
 18 33  1  0
 33 34  1  0
M  END
> <chembl_id>
CHEMBL3740471

$$$$

  SciTegic12091613532D

 33 36  0  0  0  0            999 V2000
    0.2433   -2.0726    0.0000 O   0  0
    1.2964   -1.4973    0.0000 S   0  0
    2.3495   -2.0727    0.0000 O   0  0
   -2.6111    0.7486    0.0000 C   0  0
   -2.6111   -0.7486    0.0000 C   0  0
   -1.2964   -1.4973    0.0000 C   0  0
   -1.2964    1.4973    0.0000 C   0  0
    0.0000    0.7486    0.0000 C   0  0
    0.0000   -0.7486    0.0000 C   0  0
    2.5929   -0.7486    0.0000 N   0  0
    2.5929    0.7486    0.0000 C   0  0
    1.2964    1.4973    0.0000 N   0  0
    3.6321    1.3486    0.0000 O   0  0
    3.8926   -1.4990    0.0000 C   0  0
    5.1929   -0.7510    0.0000 C   0  0
    6.4908   -1.5029    0.0000 C   0  0
    6.4885   -3.0029    0.0000 C   0  0
    5.1883   -3.7510    0.0000 C   0  0
    3.8904   -2.9990    0.0000 C   0  0
    5.1830   -5.2518    0.0000 O   0  0
    4.1420   -5.8487    0.0000 C   0  0
    7.7886   -3.7527    0.0000 O   0  0
    8.8279   -3.1528    0.0000 C   0  0
    1.2995    2.9981    0.0000 C   0  0
    2.6003    3.7467    0.0000 C   0  0
    2.6056    5.2467    0.0000 C   0  0
    3.9072    5.9922    0.0000 C   0  0
    5.2037    5.2377    0.0000 C   0  0
    5.1985    3.7377    0.0000 C   0  0
    3.8969    2.9922    0.0000 C   0  0
    1.5685    5.8503    0.0000 Cl  0  0
    3.8927    1.7922    0.0000 F   0  0
    6.2450    5.8341    0.0000 F   0  0
  2  1  2  0
  3  2  2  0
  4  5  2  0
  5  6  1  0
  6  9  2  0
  8  7  2  0
  7  4  1  0
  8  9  1  0
  8 12  1  0
  9  2  1  0
  2 10  1  0
 10 11  1  0
 11 12  1  0
 11 13  2  0
 10 14  1  0
 14 15  2  0
 15 16  1  0
 16 17  2  0
 17 18  1  0
 18 19  2  0
 19 14  1  0
 18 20  1  0
 20 21  1  0
 17 22  1  0
 22 23  1  0
 12 24  1  0
 24 25  1  0
 25 26  2  0
 26 27  1  0
 27 28  2  0
 28 29  1  0
 29 30  2  0
 30 25  1  0
 26 31  1  0
 30 32  1  0
 28 33  1  0
M  END
> <chembl_id>
CHEMBL3740873

$$$$

  SciTegic12091613532D

 34 37  0  0  0  0            999 V2000
    0.2433   -2.0726    0.0000 O   0  0
    1.2964   -1.4973    0.0000 S   0  0
    2.3495   -2.0727    0.0000 O   0  0
   -2.6111    0.7486    0.0000 C   0  0
   -2.6111   -0.7486    0.0000 C   0  0
   -1.2964   -1.4973    0.0000 C   0  0
   -1.2964    1.4973    0.0000 C   0  0
    0.0000    0.7486    0.0000 C   0  0
    0.0000   -0.7486    0.0000 C   0  0
    2.5929   -0.7486    0.0000 N   0  0
    2.5929    0.7486    0.0000 C   0  0
    1.2964    1.4973    0.0000 N   0  0
    3.6321    1.3486    0.0000 O   0  0
    3.8926   -1.4990    0.0000 C   0  0
    5.1929   -0.7510    0.0000 C   0  0
    6.4908   -1.5029    0.0000 C   0  0
    6.4885   -3.0029    0.0000 C   0  0
    5.1883   -3.7510    0.0000 C   0  0
    3.8904   -2.9990    0.0000 C   0  0
    5.1830   -5.2518    0.0000 O   0  0
    4.1420   -5.8487    0.0000 C   0  0
    7.7886   -3.7527    0.0000 O   0  0
    8.8279   -3.1528    0.0000 C   0  0
    1.2995    2.9981    0.0000 C   0  0
    2.6003    3.7467    0.0000 C   0  0
    2.6056    5.2467    0.0000 C   0  0
    3.9072    5.9922    0.0000 C   0  0
    5.2037    5.2377    0.0000 C   0  0
    5.1985    3.7377    0.0000 C   0  0
    3.8969    2.9922    0.0000 C   0  0
    1.5685    5.8503    0.0000 Cl  0  0
    3.8927    1.7922    0.0000 F   0  0
    6.5076    5.9810    0.0000 O   0  0
    7.5438    5.3759    0.0000 C   0  0
  2  1  2  0
  3  2  2  0
  4  5  2  0
  5  6  1  0
  6  9  2  0
  8  7  2  0
  7  4  1  0
  8  9  1  0
  8 12  1  0
  9  2  1  0
  2 10  1  0
 10 11  1  0
 11 12  1  0
 11 13  2  0
 10 14  1  0
 14 15  2  0
 15 16  1  0
 16 17  2  0
 17 18  1  0
 18 19  2  0
 19 14  1  0
 18 20  1  0
 20 21  1  0
 17 22  1  0
 22 23  1  0
 12 24  1  0
 24 25  1  0
 25 26  2  0
 26 27  1  0
 27 28  2  0
 28 29  1  0
 29 30  2  0
 30 25  1  0
 26 31  1  0
 30 32  1  0
 28 33  1  0
 33 34  1  0
M  END
> <chembl_id>
CHEMBL3741853

$$$$

  SciTegic12091613532D

 30 33  0  0  0  0            999 V2000
    1.2964   -1.4973    0.0000 C   0  0
   -2.6111    0.7486    0.0000 C   0  0
   -2.6111   -0.7486    0.0000 C   0  0
   -1.2964   -1.4973    0.0000 C   0  0
   -1.2964    1.4973    0.0000 C   0  0
    0.0000    0.7486    0.0000 C   0  0
    0.0000   -0.7486    0.0000 C   0  0
    2.5929   -0.7486    0.0000 N   0  0
    2.5929    0.7486    0.0000 C   0  0
    1.2964    1.4973    0.0000 N   0  0
    3.6321    1.3486    0.0000 O   0  0
    3.8926   -1.4990    0.0000 C   0  0
    5.1929   -0.7510    0.0000 C   0  0
    6.4908   -1.5029    0.0000 C   0  0
    6.4885   -3.0029    0.0000 C   0  0
    5.1883   -3.7510    0.0000 C   0  0
    3.8904   -2.9990    0.0000 C   0  0
    5.1830   -5.2518    0.0000 O   0  0
    4.1420   -5.8487    0.0000 C   0  0
    7.7886   -3.7527    0.0000 O   0  0
    8.8279   -3.1528    0.0000 C   0  0
    1.2995    2.9981    0.0000 C   0  0
    2.6003    3.7467    0.0000 C   0  0
    3.8969    2.9922    0.0000 C   0  0
    5.1985    3.7378    0.0000 C   0  0
    5.2037    5.2377    0.0000 C   0  0
    3.9072    5.9922    0.0000 C   0  0
    2.6056    5.2467    0.0000 C   0  0
    1.5685    5.8503    0.0000 Cl  0  0
    1.2964   -2.6973    0.0000 O   0  0
  2  3  2  0
  3  4  1  0
  4  7  2  0
  6  5  2  0
  5  2  1  0
  6  7  1  0
  6 10  1  0
  7  1  1  0
  1  8  1  0
  8  9  1  0
  9 10  1  0
  9 11  2  0
  8 12  1  0
 12 13  2  0
 13 14  1  0
 14 15  2  0
 15 16  1  0
 16 17  2  0
 17 12  1  0
 16 18  1  0
 18 19  1  0
 15 20  1  0
 20 21  1  0
 10 22  1  0
 22 23  1  0
 23 24  2  0
 24 25  1  0
 25 26  2  0
 26 27  1  0
 27 28  2  0
 28 23  1  0
 28 29  1  0
  1 30  2  0
M  END
> <chembl_id>
CHEMBL3741065

$$$$

  SciTegic12091613532D

 34 37  0  0  0  0            999 V2000
    0.2433   -2.0726    0.0000 O   0  0
    1.2964   -1.4973    0.0000 S   0  0
    2.3495   -2.0727    0.0000 O   0  0
   -2.6111    0.7486    0.0000 C   0  0
   -2.6111   -0.7486    0.0000 C   0  0
   -1.2964   -1.4973    0.0000 C   0  0
   -1.2964    1.4973    0.0000 C   0  0
    0.0000    0.7486    0.0000 C   0  0
    0.0000   -0.7486    0.0000 C   0  0
    2.5929   -0.7486    0.0000 N   0  0
    2.5929    0.7486    0.0000 C   0  0
    1.2964    1.4973    0.0000 N   0  0
    3.6321    1.3486    0.0000 O   0  0
    3.8926   -1.4990    0.0000 C   0  0
    5.1929   -0.7510    0.0000 C   0  0
    6.4908   -1.5029    0.0000 C   0  0
    6.4885   -3.0029    0.0000 C   0  0
    5.1883   -3.7510    0.0000 N   0  0
    3.8904   -2.9990    0.0000 C   0  0
    1.2995    2.9981    0.0000 C   0  0
    2.6003    3.7467    0.0000 C   0  0
    2.6056    5.2467    0.0000 C   0  0
    3.9072    5.9922    0.0000 C   0  0
    5.2037    5.2377    0.0000 C   0  0
    5.1985    3.7377    0.0000 C   0  0
    3.8969    2.9922    0.0000 C   0  0
    3.8927    1.7922    0.0000 F   0  0
    1.5685    5.8503    0.0000 F   0  0
    6.5076    5.9810    0.0000 O   0  0
    7.5438    5.3759    0.0000 C   0  0
    7.7901   -0.7518    0.0000 O   0  0
    7.7902    0.4482    0.0000 C   0  0
    7.7856   -3.7580    0.0000 O   0  0
    7.7820   -4.9580    0.0000 C   0  0
  2  1  2  0
  3  2  2  0
  4  5  2  0
  5  6  1  0
  6  9  2  0
  8  7  2  0
  7  4  1  0
  8  9  1  0
  8 12  1  0
  9  2  1  0
  2 10  1  0
 10 11  1  0
 11 12  1  0
 11 13  2  0
 10 14  1  0
 14 15  2  0
 15 16  1  0
 16 17  2  0
 17 18  1  0
 18 19  2  0
 19 14  1  0
 12 20  1  0
 20 21  1  0
 21 22  2  0
 22 23  1  0
 23 24  2  0
 24 25  1  0
 25 26  2  0
 26 21  1  0
 26 27  1  0
 22 28  1  0
 24 29  1  0
 29 30  1  0
 16 31  1  0
 31 32  1  0
 17 33  1  0
 33 34  1  0
M  END
> <chembl_id>
CHEMBL3741474

$$$$

  SciTegic12091613532D

 32 35  0  0  0  0            999 V2000
    0.2433   -2.0726    0.0000 O   0  0
    1.2964   -1.4973    0.0000 S   0  0
    2.3495   -2.0727    0.0000 O   0  0
   -2.6111    0.7486    0.0000 C   0  0
   -2.6111   -0.7486    0.0000 C   0  0
   -1.2964   -1.4973    0.0000 C   0  0
   -1.2964    1.4973    0.0000 C   0  0
    0.0000    0.7486    0.0000 C   0  0
    0.0000   -0.7486    0.0000 C   0  0
    2.5929   -0.7486    0.0000 N   0  0
    2.5929    0.7486    0.0000 C   0  0
    1.2964    1.4973    0.0000 N   0  0
    3.6321    1.3486    0.0000 O   0  0
    3.8926   -1.4990    0.0000 C   0  0
    5.1929   -0.7510    0.0000 C   0  0
    6.4908   -1.5029    0.0000 C   0  0
    6.4885   -3.0029    0.0000 C   0  0
    5.1883   -3.7510    0.0000 C   0  0
    3.8904   -2.9990    0.0000 C   0  0
    5.1830   -5.2518    0.0000 O   0  0
    4.1420   -5.8487    0.0000 C   0  0
    7.7886   -3.7527    0.0000 O   0  0
    8.8279   -3.1528    0.0000 C   0  0
    1.2995    2.9981    0.0000 C   0  0
    2.6003    3.7467    0.0000 C   0  0
    2.6056    5.2467    0.0000 C   0  0
    3.9072    5.9922    0.0000 C   0  0
    5.2037    5.2377    0.0000 C   0  0
    5.1985    3.7377    0.0000 C   0  0
    3.8969    2.9922    0.0000 C   0  0
    1.5685    5.8503    0.0000 Cl  0  0
    6.2450    5.8341    0.0000 F   0  0
  2  1  2  0
  3  2  2  0
  4  5  2  0
  5  6  1  0
  6  9  2  0
  8  7  2  0
  7  4  1  0
  8  9  1  0
  8 12  1  0
  9  2  1  0
  2 10  1  0
 10 11  1  0
 11 12  1  0
 11 13  2  0
 10 14  1  0
 14 15  2  0
 15 16  1  0
 16 17  2  0
 17 18  1  0
 18 19  2  0
 19 14  1  0
 18 20  1  0
 20 21  1  0
 17 22  1  0
 22 23  1  0
 12 24  1  0
 24 25  1  0
 25 26  2  0
 26 27  1  0
 27 28  2  0
 28 29  1  0
 29 30  2  0
 30 25  1  0
 26 31  1  0
 28 32  1  0
M  END
> <chembl_id>
CHEMBL3742141

$$$$

  SciTegic12091613532D

 33 36  0  0  0  0            999 V2000
    0.2433   -2.0726    0.0000 O   0  0
    1.2964   -1.4973    0.0000 S   0  0
    2.3495   -2.0727    0.0000 O   0  0
   -2.6111    0.7486    0.0000 C   0  0
   -2.6111   -0.7486    0.0000 C   0  0
   -1.2964   -1.4973    0.0000 C   0  0
   -1.2964    1.4973    0.0000 C   0  0
    0.0000    0.7486    0.0000 C   0  0
    0.0000   -0.7486    0.0000 C   0  0
    2.5929   -0.7486    0.0000 N   0  0
    2.5929    0.7486    0.0000 C   0  0
    1.2964    1.4973    0.0000 N   0  0
    3.6321    1.3486    0.0000 O   0  0
    3.8926   -1.4990    0.0000 C   0  0
    5.1929   -0.7510    0.0000 C   0  0
    6.4908   -1.5029    0.0000 C   0  0
    6.4885   -3.0029    0.0000 C   0  0
    5.1883   -3.7510    0.0000 C   0  0
    3.8904   -2.9990    0.0000 C   0  0
    5.1830   -5.2518    0.0000 O   0  0
    4.1420   -5.8487    0.0000 C   0  0
    7.7886   -3.7527    0.0000 O   0  0
    8.8279   -3.1528    0.0000 C   0  0
    1.2995    2.9981    0.0000 C   0  0
    2.6003    3.7467    0.0000 C   0  0
    2.6056    5.2467    0.0000 C   0  0
    3.9072    5.9922    0.0000 C   0  0
    5.2037    5.2377    0.0000 C   0  0
    5.1985    3.7377    0.0000 C   0  0
    3.8969    2.9922    0.0000 C   0  0
    1.5685    5.8503    0.0000 F   0  0
    3.8927    1.7922    0.0000 F   0  0
    6.2450    5.8341    0.0000 F   0  0
  2  1  2  0
  3  2  2  0
  4  5  2  0
  5  6  1  0
  6  9  2  0
  8  7  2  0
  7  4  1  0
  8  9  1  0
  8 12  1  0
  9  2  1  0
  2 10  1  0
 10 11  1  0
 11 12  1  0
 11 13  2  0
 10 14  1  0
 14 15  2  0
 15 16  1  0
 16 17  2  0
 17 18  1  0
 18 19  2  0
 19 14  1  0
 18 20  1  0
 20 21  1  0
 17 22  1  0
 22 23  1  0
 12 24  1  0
 24 25  1  0
 25 26  2  0
 26 27  1  0
 27 28  2  0
 28 29  1  0
 29 30  2  0
 30 25  1  0
 26 31  1  0
 30 32  1  0
 28 33  1  0
M  END
> <chembl_id>
CHEMBL3741978

$$$$

  SciTegic12091613532D

 33 37  0  0  0  0            999 V2000
    0.2433   -2.0726    0.0000 O   0  0
    1.2964   -1.4973    0.0000 S   0  0
    2.3495   -2.0727    0.0000 O   0  0
   -2.6111    0.7486    0.0000 C   0  0
   -2.6111   -0.7486    0.0000 C   0  0
   -1.2964   -1.4973    0.0000 C   0  0
   -1.2964    1.4973    0.0000 C   0  0
    0.0000    0.7486    0.0000 C   0  0
    0.0000   -0.7486    0.0000 C   0  0
    2.5929   -0.7486    0.0000 N   0  0
    2.5929    0.7486    0.0000 C   0  0
    1.2964    1.4973    0.0000 N   0  0
    3.6321    1.3486    0.0000 O   0  0
    3.8926   -1.4990    0.0000 C   0  0
    5.1929   -0.7510    0.0000 C   0  0
    6.4908   -1.5029    0.0000 C   0  0
    6.4885   -3.0029    0.0000 C   0  0
    5.1883   -3.7510    0.0000 C   0  0
    3.8904   -2.9990    0.0000 C   0  0
    5.1830   -5.2518    0.0000 O   0  0
    4.1420   -5.8487    0.0000 C   0  0
    7.7886   -3.7527    0.0000 O   0  0
    8.8279   -3.1528    0.0000 C   0  0
    1.2995    2.9981    0.0000 C   0  0
    2.6003    3.7467    0.0000 C   0  0
    2.6075    5.2651    0.0000 C   0  0
    5.2152    3.7291    0.0000 C   0  0
    3.8892    2.9867    0.0000 C   0  0
    5.2124    5.2331    0.0000 C   0  0
    3.9242    5.9919    0.0000 C   0  0
    4.2533    7.4485    0.0000 O   0  0
    5.7185    7.6011    0.0000 C   0  0
    6.3269    6.2271    0.0000 O   0  0
  2  1  2  0
  3  2  2  0
  4  5  2  0
  5  6  1  0
  6  9  2  0
  8  7  2  0
  7  4  1  0
  8  9  1  0
  8 12  1  0
  9  2  1  0
  2 10  1  0
 10 11  1  0
 11 12  1  0
 11 13  2  0
 10 14  1  0
 14 15  2  0
 15 16  1  0
 16 17  2  0
 17 18  1  0
 18 19  2  0
 19 14  1  0
 18 20  1  0
 20 21  1  0
 17 22  1  0
 22 23  1  0
 12 24  1  0
 24 25  1  0
 25 26  2  0
 26 30  1  0
 29 27  1  0
 27 28  2  0
 28 25  1  0
 29 30  2  0
 30 31  1  0
 31 32  1  0
 32 33  1  0
 33 29  1  0
M  END
> <chembl_id>
CHEMBL3742402

$$$$

  SciTegic12091613532D

 32 35  0  0  0  0            999 V2000
    0.2433   -2.0726    0.0000 O   0  0
    1.2964   -1.4973    0.0000 S   0  0
    2.3495   -2.0727    0.0000 O   0  0
   -2.6111    0.7486    0.0000 C   0  0
   -2.6111   -0.7486    0.0000 C   0  0
   -1.2964   -1.4973    0.0000 C   0  0
   -1.2964    1.4973    0.0000 C   0  0
    0.0000    0.7486    0.0000 C   0  0
    0.0000   -0.7486    0.0000 C   0  0
    2.5929   -0.7486    0.0000 N   0  0
    2.5929    0.7486    0.0000 C   0  0
    1.2964    1.4973    0.0000 N   0  0
    3.6321    1.3486    0.0000 O   0  0
    3.8926   -1.4990    0.0000 C   0  0
    5.1929   -0.7510    0.0000 C   0  0
    6.4908   -1.5029    0.0000 C   0  0
    6.4885   -3.0029    0.0000 C   0  0
    5.1883   -3.7510    0.0000 C   0  0
    3.8904   -2.9990    0.0000 C   0  0
    5.1830   -5.2518    0.0000 O   0  0
    4.1420   -5.8487    0.0000 C   0  0
    7.7886   -3.7527    0.0000 O   0  0
    8.8279   -3.1528    0.0000 C   0  0
    1.2995    2.9981    0.0000 C   0  0
    2.6003    3.7467    0.0000 C   0  0
    2.6056    5.2467    0.0000 C   0  0
    3.9072    5.9922    0.0000 C   0  0
    5.2037    5.2377    0.0000 C   0  0
    5.1985    3.7377    0.0000 C   0  0
    3.8969    2.9922    0.0000 C   0  0
    1.5685    5.8503    0.0000 F   0  0
    6.2450    5.8341    0.0000 Cl  0  0
  2  1  2  0
  3  2  2  0
  4  5  2  0
  5  6  1  0
  6  9  2  0
  8  7  2  0
  7  4  1  0
  8  9  1  0
  8 12  1  0
  9  2  1  0
  2 10  1  0
 10 11  1  0
 11 12  1  0
 11 13  2  0
 10 14  1  0
 14 15  2  0
 15 16  1  0
 16 17  2  0
 17 18  1  0
 18 19  2  0
 19 14  1  0
 18 20  1  0
 20 21  1  0
 17 22  1  0
 22 23  1  0
 12 24  1  0
 24 25  1  0
 25 26  2  0
 26 27  1  0
 27 28  2  0
 28 29  1  0
 29 30  2  0
 30 25  1  0
 26 31  1  0
 28 32  1  0
M  END
> <chembl_id>
CHEMBL3740284

$$$$

  SciTegic12091613532D

 30 33  0  0  0  0            999 V2000
    0.2433   -2.0726    0.0000 O   0  0
    1.2964   -1.4973    0.0000 S   0  0
    2.3495   -2.0727    0.0000 O   0  0
   -2.6111    0.7486    0.0000 C   0  0
   -2.6111   -0.7486    0.0000 C   0  0
   -1.2964   -1.4973    0.0000 C   0  0
   -1.2964    1.4973    0.0000 C   0  0
    0.0000    0.7486    0.0000 C   0  0
    0.0000   -0.7486    0.0000 C   0  0
    2.5929   -0.7486    0.0000 N   0  0
    2.5929    0.7486    0.0000 C   0  0
    1.2964    1.4973    0.0000 N   0  0
    3.6321    1.3486    0.0000 O   0  0
    3.8926   -1.4990    0.0000 C   0  0
    5.1929   -0.7510    0.0000 C   0  0
    6.4908   -1.5029    0.0000 C   0  0
    6.4885   -3.0029    0.0000 C   0  0
    5.1883   -3.7510    0.0000 C   0  0
    3.8904   -2.9990    0.0000 C   0  0
    5.1830   -5.2518    0.0000 O   0  0
    4.1420   -5.8487    0.0000 C   0  0
    7.7886   -3.7527    0.0000 O   0  0
    8.8279   -3.1528    0.0000 C   0  0
    1.2995    2.9981    0.0000 C   0  0
    2.6003    3.7467    0.0000 C   0  0
    2.6056    5.2467    0.0000 C   0  0
    3.9072    5.9922    0.0000 C   0  0
    5.2037    5.2377    0.0000 C   0  0
    5.1985    3.7377    0.0000 C   0  0
    3.8969    2.9922    0.0000 C   0  0
  2  1  2  0
  3  2  2  0
  4  5  2  0
  5  6  1  0
  6  9  2  0
  8  7  2  0
  7  4  1  0
  8  9  1  0
  8 12  1  0
  9  2  1  0
  2 10  1  0
 10 11  1  0
 11 12  1  0
 11 13  2  0
 10 14  1  0
 14 15  2  0
 15 16  1  0
 16 17  2  0
 17 18  1  0
 18 19  2  0
 19 14  1  0
 18 20  1  0
 20 21  1  0
 17 22  1  0
 22 23  1  0
 12 24  1  0
 24 25  1  0
 25 26  2  0
 26 27  1  0
 27 28  2  0
 28 29  1  0
 29 30  2  0
 30 25  1  0
M  END
> <chembl_id>
CHEMBL3740976

$$$$

  SciTegic12091613532D

 33 36  0  0  0  0            999 V2000
    0.2433   -2.0726    0.0000 O   0  0
    1.2964   -1.4973    0.0000 S   0  0
    2.3495   -2.0727    0.0000 O   0  0
   -2.6111    0.7486    0.0000 C   0  0
   -2.6111   -0.7486    0.0000 C   0  0
   -1.2964   -1.4973    0.0000 C   0  0
   -1.2964    1.4973    0.0000 C   0  0
    0.0000    0.7486    0.0000 C   0  0
    0.0000   -0.7486    0.0000 C   0  0
    2.5929   -0.7486    0.0000 N   0  0
    2.5929    0.7486    0.0000 C   0  0
    1.2964    1.4973    0.0000 N   0  0
    3.6321    1.3486    0.0000 O   0  0
    3.8926   -1.4990    0.0000 C   0  0
    5.1929   -0.7510    0.0000 C   0  0
    6.4908   -1.5029    0.0000 C   0  0
    6.4885   -3.0029    0.0000 N   0  0
    5.1883   -3.7510    0.0000 C   0  0
    3.8904   -2.9990    0.0000 C   0  0
    1.2995    2.9981    0.0000 C   0  0
    2.6003    3.7467    0.0000 C   0  0
    2.6056    5.2467    0.0000 C   0  0
    3.9072    5.9922    0.0000 C   0  0
    5.2037    5.2377    0.0000 C   0  0
    5.1985    3.7377    0.0000 C   0  0
    3.8969    2.9922    0.0000 C   0  0
    3.8927    1.7922    0.0000 F   0  0
    1.5685    5.8503    0.0000 F   0  0
    6.2450    5.8341    0.0000 F   0  0
    7.7932   -0.7572    0.0000 O   0  0
    8.8306   -1.3602    0.0000 C   0  0
    5.1830   -5.2518    0.0000 O   0  0
    4.1420   -5.8487    0.0000 C   0  0
  2  1  2  0
  3  2  2  0
  4  5  2  0
  5  6  1  0
  6  9  2  0
  8  7  2  0
  7  4  1  0
  8  9  1  0
  8 12  1  0
  9  2  1  0
  2 10  1  0
 10 11  1  0
 11 12  1  0
 11 13  2  0
 10 14  1  0
 14 15  2  0
 15 16  1  0
 16 17  2  0
 17 18  1  0
 18 19  2  0
 19 14  1  0
 12 20  1  0
 20 21  1  0
 21 22  2  0
 22 23  1  0
 23 24  2  0
 24 25  1  0
 25 26  2  0
 26 21  1  0
 26 27  1  0
 22 28  1  0
 24 29  1  0
 16 30  1  0
 30 31  1  0
 18 32  1  0
 32 33  1  0
M  END
> <chembl_id>
CHEMBL3741648

$$$$

  SciTegic12091613532D

 34 37  0  0  0  0            999 V2000
    0.2433   -2.0726    0.0000 O   0  0
    1.2964   -1.4973    0.0000 S   0  0
    2.3495   -2.0727    0.0000 O   0  0
   -2.6111    0.7486    0.0000 C   0  0
   -2.6111   -0.7486    0.0000 C   0  0
   -1.2964   -1.4973    0.0000 C   0  0
   -1.2964    1.4973    0.0000 C   0  0
    0.0000    0.7486    0.0000 C   0  0
    0.0000   -0.7486    0.0000 C   0  0
    2.5929   -0.7486    0.0000 N   0  0
    2.5929    0.7486    0.0000 C   0  0
    1.2964    1.4973    0.0000 N   0  0
    3.6321    1.3486    0.0000 O   0  0
    3.8926   -1.4990    0.0000 C   0  0
    5.1929   -0.7510    0.0000 C   0  0
    6.4908   -1.5029    0.0000 C   0  0
    6.4885   -3.0029    0.0000 C   0  0
    5.1883   -3.7510    0.0000 C   0  0
    3.8904   -2.9990    0.0000 C   0  0
    5.1830   -5.2518    0.0000 O   0  0
    4.1420   -5.8487    0.0000 C   0  0
    7.7886   -3.7527    0.0000 O   0  0
    8.8279   -3.1528    0.0000 C   0  0
    1.2995    2.9981    0.0000 C   0  0
    2.6003    3.7467    0.0000 C   0  0
    2.6056    5.2467    0.0000 C   0  0
    3.9072    5.9922    0.0000 C   0  0
    5.2037    5.2377    0.0000 C   0  0
    5.1985    3.7377    0.0000 C   0  0
    3.8969    2.9922    0.0000 C   0  0
    1.5685    5.8503    0.0000 F   0  0
    3.8927    1.7922    0.0000 F   0  0
    6.5076    5.9810    0.0000 O   0  0
    7.5438    5.3759    0.0000 C   0  0
  2  1  2  0
  3  2  2  0
  4  5  2  0
  5  6  1  0
  6  9  2  0
  8  7  2  0
  7  4  1  0
  8  9  1  0
  8 12  1  0
  9  2  1  0
  2 10  1  0
 10 11  1  0
 11 12  1  0
 11 13  2  0
 10 14  1  0
 14 15  2  0
 15 16  1  0
 16 17  2  0
 17 18  1  0
 18 19  2  0
 19 14  1  0
 18 20  1  0
 20 21  1  0
 17 22  1  0
 22 23  1  0
 12 24  1  0
 24 25  1  0
 25 26  2  0
 26 27  1  0
 27 28  2  0
 28 29  1  0
 29 30  2  0
 30 25  1  0
 26 31  1  0
 30 32  1  0
 28 33  1  0
 33 34  1  0
M  END
> <chembl_id>
CHEMBL3742398

$$$$

  SciTegic12091613532D

 33 36  0  0  0  0            999 V2000
    0.2433   -2.0726    0.0000 O   0  0
    1.2964   -1.4973    0.0000 S   0  0
    2.3495   -2.0727    0.0000 O   0  0
   -2.6111    0.7486    0.0000 C   0  0
   -2.6111   -0.7486    0.0000 C   0  0
   -1.2964   -1.4973    0.0000 C   0  0
   -1.2964    1.4973    0.0000 C   0  0
    0.0000    0.7486    0.0000 C   0  0
    0.0000   -0.7486    0.0000 C   0  0
    2.5929   -0.7486    0.0000 N   0  0
    2.5929    0.7486    0.0000 C   0  0
    1.2964    1.4973    0.0000 N   0  0
    3.6321    1.3486    0.0000 O   0  0
    3.8926   -1.4990    0.0000 C   0  0
    5.1929   -0.7510    0.0000 C   0  0
    6.4908   -1.5029    0.0000 C   0  0
    6.4885   -3.0029    0.0000 C   0  0
    5.1883   -3.7510    0.0000 N   0  0
    3.8904   -2.9990    0.0000 C   0  0
    1.2995    2.9981    0.0000 C   0  0
    2.6003    3.7467    0.0000 C   0  0
    2.6056    5.2467    0.0000 C   0  0
    3.9072    5.9922    0.0000 C   0  0
    5.2037    5.2377    0.0000 C   0  0
    5.1985    3.7377    0.0000 C   0  0
    3.8969    2.9922    0.0000 C   0  0
    3.8927    1.7922    0.0000 F   0  0
    1.5685    5.8503    0.0000 Cl  0  0
    6.2450    5.8341    0.0000 F   0  0
    7.7901   -0.7518    0.0000 O   0  0
    7.7902    0.4482    0.0000 C   0  0
    7.7856   -3.7580    0.0000 O   0  0
    7.7820   -4.9580    0.0000 C   0  0
  2  1  2  0
  3  2  2  0
  4  5  2  0
  5  6  1  0
  6  9  2  0
  8  7  2  0
  7  4  1  0
  8  9  1  0
  8 12  1  0
  9  2  1  0
  2 10  1  0
 10 11  1  0
 11 12  1  0
 11 13  2  0
 10 14  1  0
 14 15  2  0
 15 16  1  0
 16 17  2  0
 17 18  1  0
 18 19  2  0
 19 14  1  0
 12 20  1  0
 20 21  1  0
 21 22  2  0
 22 23  1  0
 23 24  2  0
 24 25  1  0
 25 26  2  0
 26 21  1  0
 26 27  1  0
 22 28  1  0
 24 29  1  0
 16 30  1  0
 30 31  1  0
 17 32  1  0
 32 33  1  0
M  END
> <chembl_id>
CHEMBL3741721

$$$$

  SciTegic12091613532D

 31 34  0  0  0  0            999 V2000
    0.2433   -2.0726    0.0000 O   0  0
    1.2964   -1.4973    0.0000 S   0  0
    2.3495   -2.0727    0.0000 O   0  0
   -2.6111    0.7486    0.0000 C   0  0
   -2.6111   -0.7486    0.0000 C   0  0
   -1.2964   -1.4973    0.0000 C   0  0
   -1.2964    1.4973    0.0000 C   0  0
    0.0000    0.7486    0.0000 C   0  0
    0.0000   -0.7486    0.0000 C   0  0
    2.5929   -0.7486    0.0000 N   0  0
    2.5929    0.7486    0.0000 C   0  0
    1.2964    1.4973    0.0000 N   0  0
    3.6321    1.3486    0.0000 O   0  0
    3.8926   -1.4990    0.0000 C   0  0
    5.1929   -0.7510    0.0000 C   0  0
    6.4908   -1.5029    0.0000 C   0  0
    6.4885   -3.0029    0.0000 C   0  0
    5.1883   -3.7510    0.0000 C   0  0
    3.8904   -2.9990    0.0000 C   0  0
    5.1830   -5.2518    0.0000 O   0  0
    4.1420   -5.8487    0.0000 C   0  0
    7.7886   -3.7527    0.0000 O   0  0
    8.8279   -3.1528    0.0000 C   0  0
    1.2995    2.9981    0.0000 C   0  0
    2.6003    3.7467    0.0000 C   0  0
    2.6056    5.2467    0.0000 C   0  0
    3.9072    5.9922    0.0000 C   0  0
    5.2037    5.2377    0.0000 C   0  0
    5.1985    3.7377    0.0000 C   0  0
    3.8969    2.9922    0.0000 C   0  0
    1.5685    5.8503    0.0000 F   0  0
  2  1  2  0
  3  2  2  0
  4  5  2  0
  5  6  1  0
  6  9  2  0
  8  7  2  0
  7  4  1  0
  8  9  1  0
  8 12  1  0
  9  2  1  0
  2 10  1  0
 10 11  1  0
 11 12  1  0
 11 13  2  0
 10 14  1  0
 14 15  2  0
 15 16  1  0
 16 17  2  0
 17 18  1  0
 18 19  2  0
 19 14  1  0
 18 20  1  0
 20 21  1  0
 17 22  1  0
 22 23  1  0
 12 24  1  0
 24 25  1  0
 25 26  2  0
 26 27  1  0
 27 28  2  0
 28 29  1  0
 29 30  2  0
 30 25  1  0
 26 31  1  0
M  END
> <chembl_id>
CHEMBL3739510

$$$$

  SciTegic12091613532D

 31 34  0  0  0  0            999 V2000
    0.2433   -2.0726    0.0000 O   0  0
    1.2964   -1.4973    0.0000 S   0  0
    2.3495   -2.0727    0.0000 O   0  0
   -2.6111    0.7486    0.0000 C   0  0
   -2.6111   -0.7486    0.0000 C   0  0
   -1.2964   -1.4973    0.0000 C   0  0
   -1.2964    1.4973    0.0000 C   0  0
    0.0000    0.7486    0.0000 C   0  0
    0.0000   -0.7486    0.0000 C   0  0
    2.5929   -0.7486    0.0000 N   0  0
    2.5929    0.7486    0.0000 C   0  0
    1.2964    1.4973    0.0000 N   0  0
    3.6321    1.3486    0.0000 O   0  0
    3.8926   -1.4990    0.0000 C   0  0
    5.1929   -0.7510    0.0000 C   0  0
    6.4908   -1.5029    0.0000 C   0  0
    6.4885   -3.0029    0.0000 N   0  0
    5.1883   -3.7510    0.0000 C   0  0
    3.8904   -2.9990    0.0000 C   0  0
    1.2995    2.9981    0.0000 C   0  0
    2.6003    3.7467    0.0000 C   0  0
    2.6056    5.2467    0.0000 C   0  0
    3.9072    5.9922    0.0000 C   0  0
    5.2037    5.2377    0.0000 C   0  0
    5.1985    3.7377    0.0000 C   0  0
    3.8969    2.9922    0.0000 C   0  0
    3.8927    1.7922    0.0000 F   0  0
    1.5685    5.8503    0.0000 F   0  0
    6.2450    5.8341    0.0000 F   0  0
    5.1830   -5.2518    0.0000 O   0  0
    4.1420   -5.8487    0.0000 C   0  0
  2  1  2  0
  3  2  2  0
  4  5  2  0
  5  6  1  0
  6  9  2  0
  8  7  2  0
  7  4  1  0
  8  9  1  0
  8 12  1  0
  9  2  1  0
  2 10  1  0
 10 11  1  0
 11 12  1  0
 11 13  2  0
 10 14  1  0
 14 15  2  0
 15 16  1  0
 16 17  2  0
 17 18  1  0
 18 19  2  0
 19 14  1  0
 12 20  1  0
 20 21  1  0
 21 22  2  0
 22 23  1  0
 23 24  2  0
 24 25  1  0
 25 26  2  0
 26 21  1  0
 26 27  1  0
 22 28  1  0
 24 29  1  0
 18 30  1  0
 30 31  1  0
M  END
> <chembl_id>
CHEMBL3742143

$$$$

  SciTegic12091613532D

 33 36  0  0  0  0            999 V2000
    0.2433   -2.0726    0.0000 O   0  0
    1.2964   -1.4973    0.0000 S   0  0
    2.3495   -2.0727    0.0000 O   0  0
   -2.6111    0.7486    0.0000 C   0  0
   -2.6111   -0.7486    0.0000 C   0  0
   -1.2964   -1.4973    0.0000 C   0  0
   -1.2964    1.4973    0.0000 C   0  0
    0.0000    0.7486    0.0000 C   0  0
    0.0000   -0.7486    0.0000 C   0  0
    2.5929   -0.7486    0.0000 N   0  0
    2.5929    0.7486    0.0000 C   0  0
    1.2964    1.4973    0.0000 N   0  0
    3.6321    1.3486    0.0000 O   0  0
    3.8926   -1.4990    0.0000 C   0  0
    5.1929   -0.7510    0.0000 C   0  0
    6.4908   -1.5029    0.0000 C   0  0
    6.4885   -3.0029    0.0000 C   0  0
    5.1883   -3.7510    0.0000 C   0  0
    3.8904   -2.9990    0.0000 C   0  0
    5.1830   -5.2518    0.0000 O   0  0
    4.1420   -5.8487    0.0000 C   0  0
    7.7886   -3.7527    0.0000 O   0  0
    8.8279   -3.1528    0.0000 C   0  0
    1.2995    2.9981    0.0000 C   0  0
    2.6003    3.7467    0.0000 C   0  0
    2.6056    5.2467    0.0000 C   0  0
    3.9072    5.9922    0.0000 C   0  0
    5.2037    5.2377    0.0000 C   0  0
    5.1985    3.7377    0.0000 C   0  0
    3.8969    2.9922    0.0000 C   0  0
    1.5685    5.8503    0.0000 Cl  0  0
    3.8927    1.7922    0.0000 F   0  0
    6.2450    5.8341    0.0000 C   0  0
  2  1  2  0
  3  2  2  0
  4  5  2  0
  5  6  1  0
  6  9  2  0
  8  7  2  0
  7  4  1  0
  8  9  1  0
  8 12  1  0
  9  2  1  0
  2 10  1  0
 10 11  1  0
 11 12  1  0
 11 13  2  0
 10 14  1  0
 14 15  2  0
 15 16  1  0
 16 17  2  0
 17 18  1  0
 18 19  2  0
 19 14  1  0
 18 20  1  0
 20 21  1  0
 17 22  1  0
 22 23  1  0
 12 24  1  0
 24 25  1  0
 25 26  2  0
 26 27  1  0
 27 28  2  0
 28 29  1  0
 29 30  2  0
 30 25  1  0
 26 31  1  0
 30 32  1  0
 28 33  1  0
M  END
> <chembl_id>
CHEMBL3741094

$$$$

  SciTegic12091613532D

 33 36  0  0  0  0            999 V2000
    0.2433   -2.0726    0.0000 O   0  0
    1.2964   -1.4973    0.0000 S   0  0
    2.3495   -2.0727    0.0000 O   0  0
   -2.6111    0.7486    0.0000 C   0  0
   -2.6111   -0.7486    0.0000 C   0  0
   -1.2964   -1.4973    0.0000 C   0  0
   -1.2964    1.4973    0.0000 C   0  0
    0.0000    0.7486    0.0000 C   0  0
    0.0000   -0.7486    0.0000 C   0  0
    2.5929   -0.7486    0.0000 N   0  0
    2.5929    0.7486    0.0000 C   0  0
    1.2964    1.4973    0.0000 N   0  0
    3.6321    1.3486    0.0000 O   0  0
    3.8926   -1.4990    0.0000 C   0  0
    5.1929   -0.7510    0.0000 C   0  0
    6.4908   -1.5029    0.0000 C   0  0
    6.4885   -3.0029    0.0000 C   0  0
    5.1883   -3.7510    0.0000 N   0  0
    3.8904   -2.9990    0.0000 C   0  0
    1.2995    2.9981    0.0000 C   0  0
    2.6003    3.7467    0.0000 C   0  0
    2.6056    5.2467    0.0000 C   0  0
    3.9072    5.9922    0.0000 C   0  0
    5.2037    5.2377    0.0000 C   0  0
    5.1985    3.7377    0.0000 C   0  0
    3.8969    2.9922    0.0000 C   0  0
    3.8927    1.7922    0.0000 F   0  0
    1.5685    5.8503    0.0000 F   0  0
    6.2450    5.8341    0.0000 F   0  0
    7.7856   -3.7580    0.0000 O   0  0
    7.7820   -4.9580    0.0000 C   0  0
    7.7901   -0.7518    0.0000 O   0  0
    7.7902    0.4482    0.0000 C   0  0
  2  1  2  0
  3  2  2  0
  4  5  2  0
  5  6  1  0
  6  9  2  0
  8  7  2  0
  7  4  1  0
  8  9  1  0
  8 12  1  0
  9  2  1  0
  2 10  1  0
 10 11  1  0
 11 12  1  0
 11 13  2  0
 10 14  1  0
 14 15  2  0
 15 16  1  0
 16 17  2  0
 17 18  1  0
 18 19  2  0
 19 14  1  0
 12 20  1  0
 20 21  1  0
 21 22  2  0
 22 23  1  0
 23 24  2  0
 24 25  1  0
 25 26  2  0
 26 21  1  0
 26 27  1  0
 22 28  1  0
 24 29  1  0
 17 30  1  0
 30 31  1  0
 16 32  1  0
 32 33  1  0
M  END
> <chembl_id>
CHEMBL3741125

$$$$

  SciTegic12091613532D

 33 36  0  0  0  0            999 V2000
    0.2433   -2.0726    0.0000 O   0  0
    1.2964   -1.4973    0.0000 S   0  0
    2.3495   -2.0727    0.0000 O   0  0
   -2.6111    0.7486    0.0000 C   0  0
   -2.6111   -0.7486    0.0000 C   0  0
   -1.2964   -1.4973    0.0000 C   0  0
   -1.2964    1.4973    0.0000 N   0  0
    0.0000    0.7486    0.0000 C   0  0
    0.0000   -0.7486    0.0000 C   0  0
    2.5929   -0.7486    0.0000 N   0  0
    2.5929    0.7486    0.0000 C   0  0
    1.2964    1.4973    0.0000 N   0  0
    3.6321    1.3486    0.0000 O   0  0
    3.8926   -1.4990    0.0000 C   0  0
    5.1929   -0.7510    0.0000 C   0  0
    6.4908   -1.5029    0.0000 C   0  0
    6.4885   -3.0029    0.0000 C   0  0
    5.1883   -3.7510    0.0000 N   0  0
    3.8904   -2.9990    0.0000 C   0  0
    1.2995    2.9981    0.0000 C   0  0
    2.6003    3.7467    0.0000 C   0  0
    2.6056    5.2467    0.0000 C   0  0
    3.9072    5.9922    0.0000 C   0  0
    5.2037    5.2377    0.0000 C   0  0
    5.1985    3.7377    0.0000 C   0  0
    3.8969    2.9922    0.0000 C   0  0
    3.8927    1.7922    0.0000 F   0  0
    1.5685    5.8503    0.0000 F   0  0
    7.7856   -3.7580    0.0000 O   0  0
    7.7820   -4.9580    0.0000 C   0  0
    6.2450    5.8341    0.0000 F   0  0
    7.7901   -0.7518    0.0000 O   0  0
    7.7902    0.4482    0.0000 C   0  0
  2  1  2  0
  3  2  2  0
  4  5  2  0
  5  6  1  0
  6  9  2  0
  8  7  2  0
  7  4  1  0
  8  9  1  0
  8 12  1  0
  9  2  1  0
  2 10  1  0
 10 11  1  0
 11 12  1  0
 11 13  2  0
 10 14  1  0
 14 15  2  0
 15 16  1  0
 16 17  2  0
 17 18  1  0
 18 19  2  0
 19 14  1  0
 12 20  1  0
 20 21  1  0
 21 22  2  0
 22 23  1  0
 23 24  2  0
 24 25  1  0
 25 26  2  0
 26 21  1  0
 26 27  1  0
 22 28  1  0
 17 29  1  0
 29 30  1  0
 24 31  1  0
 16 32  1  0
 32 33  1  0
M  END
> <chembl_id>
CHEMBL3740099

$$$$

  SciTegic12091613532D

 32 35  0  0  0  0            999 V2000
    0.2433   -2.0726    0.0000 O   0  0
    1.2964   -1.4973    0.0000 S   0  0
    2.3495   -2.0727    0.0000 O   0  0
   -2.6111    0.7486    0.0000 C   0  0
   -2.6111   -0.7486    0.0000 C   0  0
   -1.2964   -1.4973    0.0000 C   0  0
   -1.2964    1.4973    0.0000 C   0  0
    0.0000    0.7486    0.0000 C   0  0
    0.0000   -0.7486    0.0000 C   0  0
    2.5929   -0.7486    0.0000 N   0  0
    2.5929    0.7486    0.0000 C   0  0
    1.2964    1.4973    0.0000 N   0  0
    3.6321    1.3486    0.0000 O   0  0
    3.8926   -1.4990    0.0000 C   0  0
    5.1929   -0.7510    0.0000 C   0  0
    6.4908   -1.5029    0.0000 C   0  0
    6.4885   -3.0029    0.0000 C   0  0
    5.1883   -3.7510    0.0000 C   0  0
    3.8904   -2.9990    0.0000 C   0  0
    5.1830   -5.2518    0.0000 O   0  0
    4.1420   -5.8487    0.0000 C   0  0
    7.7886   -3.7527    0.0000 O   0  0
    8.8279   -3.1528    0.0000 C   0  0
    1.2995    2.9981    0.0000 C   0  0
    2.6003    3.7467    0.0000 C   0  0
    2.6056    5.2467    0.0000 C   0  0
    3.9072    5.9922    0.0000 C   0  0
    5.2037    5.2377    0.0000 C   0  0
    5.1985    3.7377    0.0000 C   0  0
    3.8969    2.9922    0.0000 C   0  0
    1.5685    5.8503    0.0000 Cl  0  0
    3.8927    1.7922    0.0000 F   0  0
  2  1  2  0
  3  2  2  0
  4  5  2  0
  5  6  1  0
  6  9  2  0
  8  7  2  0
  7  4  1  0
  8  9  1  0
  8 12  1  0
  9  2  1  0
  2 10  1  0
 10 11  1  0
 11 12  1  0
 11 13  2  0
 10 14  1  0
 14 15  2  0
 15 16  1  0
 16 17  2  0
 17 18  1  0
 18 19  2  0
 19 14  1  0
 18 20  1  0
 20 21  1  0
 17 22  1  0
 22 23  1  0
 12 24  1  0
 24 25  1  0
 25 26  2  0
 26 27  1  0
 27 28  2  0
 28 29  1  0
 29 30  2  0
 30 25  1  0
 26 31  1  0
 30 32  1  0
M  END
> <chembl_id>
CHEMBL3742392

$$$$

  SciTegic12091613532D

 33 36  0  0  0  0            999 V2000
    0.2433   -2.0726    0.0000 O   0  0
    1.2964   -1.4973    0.0000 S   0  0
    2.3495   -2.0727    0.0000 O   0  0
   -2.6111    0.7486    0.0000 C   0  0
   -2.6111   -0.7486    0.0000 C   0  0
   -1.2964   -1.4973    0.0000 C   0  0
   -1.2964    1.4973    0.0000 N   0  0
    0.0000    0.7486    0.0000 C   0  0
    0.0000   -0.7486    0.0000 C   0  0
    2.5929   -0.7486    0.0000 N   0  0
    2.5929    0.7486    0.0000 C   0  0
    1.2964    1.4973    0.0000 N   0  0
    3.6321    1.3486    0.0000 O   0  0
    3.8926   -1.4990    0.0000 C   0  0
    5.1929   -0.7510    0.0000 C   0  0
    6.4908   -1.5029    0.0000 C   0  0
    6.4885   -3.0029    0.0000 C   0  0
    5.1883   -3.7510    0.0000 C   0  0
    3.8904   -2.9990    0.0000 N   0  0
    1.2995    2.9981    0.0000 C   0  0
    2.6003    3.7467    0.0000 C   0  0
    2.6056    5.2467    0.0000 C   0  0
    3.9072    5.9922    0.0000 C   0  0
    5.2037    5.2377    0.0000 C   0  0
    5.1985    3.7377    0.0000 C   0  0
    3.8969    2.9922    0.0000 C   0  0
    3.8927    1.7922    0.0000 F   0  0
    1.5685    5.8503    0.0000 F   0  0
    7.7886   -3.7527    0.0000 O   0  0
    8.8279   -3.1528    0.0000 C   0  0
    6.2450    5.8341    0.0000 F   0  0
    5.1830   -5.2518    0.0000 O   0  0
    4.1420   -5.8487    0.0000 C   0  0
  2  1  2  0
  3  2  2  0
  4  5  2  0
  5  6  1  0
  6  9  2  0
  8  7  2  0
  7  4  1  0
  8  9  1  0
  8 12  1  0
  9  2  1  0
  2 10  1  0
 10 11  1  0
 11 12  1  0
 11 13  2  0
 10 14  1  0
 14 15  2  0
 15 16  1  0
 16 17  2  0
 17 18  1  0
 18 19  2  0
 19 14  1  0
 12 20  1  0
 20 21  1  0
 21 22  2  0
 22 23  1  0
 23 24  2  0
 24 25  1  0
 25 26  2  0
 26 21  1  0
 26 27  1  0
 22 28  1  0
 17 29  1  0
 29 30  1  0
 24 31  1  0
 18 32  1  0
 32 33  1  0
M  END
> <chembl_id>
CHEMBL3741584

$$$$

  SciTegic01161211252D

 32 36  0  0  0  0            999 V2000
    9.4130  -21.2520    0.0000 C   0  0
   10.1273  -21.6653    0.0000 N   0  0
   11.2516  -23.1610    0.0000 C   0  0  1  0  0  0
   11.7738  -22.4865    0.0000 N   0  0
   11.5713  -21.7055    0.0000 C   0  0
   10.4194  -23.1570    0.0000 C   0  0
    9.9182  -22.5037    0.0000 C   0  0
   10.8452  -21.3417    0.0000 C   0  0
   12.5984  -22.5240    0.0000 C   0  0
   12.9781  -23.2569    0.0000 C   0  0
   13.0431  -21.8287    0.0000 O   0  0
   12.5314  -23.9482    0.0000 C   0  0
   12.9105  -24.6806    0.0000 C   0  0
   13.7359  -24.7186    0.0000 C   0  0
   14.1807  -24.0182    0.0000 C   0  0
   13.7992  -23.2888    0.0000 C   0  0
   14.2921  -22.6258    0.0000 N   0  0
   15.1174  -22.6385    0.0000 N   0  0
   15.3845  -21.8575    0.0000 C   0  0
   14.7243  -21.3621    0.0000 C   0  0
   14.0492  -21.8370    0.0000 N   0  0
   11.6133  -23.9029    0.0000 C   0  0
    9.3246  -20.4306    0.0000 O   0  0
    8.6561  -21.5863    0.0000 N   0  0
    8.1044  -20.9726    0.0000 C   0  0
    8.5175  -20.2598    0.0000 C   0  0
    8.1067  -19.5478    0.0000 C   0  0
    7.2831  -19.5473    0.0000 C   0  0
    6.8719  -20.2650    0.0000 C   0  0
    7.2850  -20.9740    0.0000 C   0  0
   12.4654  -25.3757    0.0000 C   0  0
    6.0465  -20.2679    0.0000 Cl  0  0
 15 16  2  0
 16 10  1  0
 17 18  1  0
  6  7  1  0
  4  9  1  0
  1  2  1  0
  9 10  1  0
 18 19  2  0
 19 20  1  0
 20 21  2  0
 21 17  1  0
 16 17  1  0
  3  4  1  0
  3 22  1  6
  1 23  1  0
  9 11  2  0
  4  5  1  0
 23 26  1  0
 25 24  1  0
 24  1  2  0
 10 12  2  0
  3  6  1  0
 25 26  2  0
 12 13  1  0
 26 27  1  0
  7  2  1  0
 27 28  2  0
 13 14  2  0
 28 29  1  0
  2  8  1  0
 29 30  2  0
 30 25  1  0
 14 15  1  0
 13 31  1  0
  8  5  1  0
 29 32  1  0
M  END
> <chembl_id>
CHEMBL1083659

$$$$

  SciTegic12091613532D

 34 37  0  0  0  0            999 V2000
    0.2433   -2.0726    0.0000 O   0  0
    1.2964   -1.4973    0.0000 S   0  0
    2.3495   -2.0727    0.0000 O   0  0
   -2.6111    0.7486    0.0000 C   0  0
   -2.6111   -0.7486    0.0000 C   0  0
   -1.2964   -1.4973    0.0000 C   0  0
   -1.2964    1.4973    0.0000 C   0  0
    0.0000    0.7486    0.0000 C   0  0
    0.0000   -0.7486    0.0000 C   0  0
    2.5929   -0.7486    0.0000 N   0  0
    2.5929    0.7486    0.0000 C   0  0
    1.2964    1.4973    0.0000 N   0  0
    3.6321    1.3486    0.0000 O   0  0
    3.8926   -1.4990    0.0000 C   0  0
    5.1929   -0.7510    0.0000 C   0  0
    6.4908   -1.5029    0.0000 C   0  0
    6.4885   -3.0029    0.0000 C   0  0
    5.1883   -3.7510    0.0000 C   0  0
    3.8904   -2.9990    0.0000 C   0  0
    5.1830   -5.2518    0.0000 O   0  0
    4.1420   -5.8487    0.0000 C   0  0
    7.7886   -3.7527    0.0000 O   0  0
    8.8279   -3.1528    0.0000 C   0  0
    1.2995    2.9981    0.0000 C   0  0
    2.6003    3.7467    0.0000 C   0  0
    2.6056    5.2467    0.0000 C   0  0
    3.9072    5.9922    0.0000 C   0  0
    5.2037    5.2377    0.0000 C   0  0
    5.1985    3.7377    0.0000 C   0  0
    3.8969    2.9922    0.0000 C   0  0
    1.3100    6.0043    0.0000 O   0  0
    3.8927    1.7922    0.0000 F   0  0
    6.2450    5.8341    0.0000 F   0  0
    1.3159    7.2043    0.0000 C   0  0
  2  1  2  0
  3  2  2  0
  4  5  2  0
  5  6  1  0
  6  9  2  0
  8  7  2  0
  7  4  1  0
  8  9  1  0
  8 12  1  0
  9  2  1  0
  2 10  1  0
 10 11  1  0
 11 12  1  0
 11 13  2  0
 10 14  1  0
 14 15  2  0
 15 16  1  0
 16 17  2  0
 17 18  1  0
 18 19  2  0
 19 14  1  0
 18 20  1  0
 20 21  1  0
 17 22  1  0
 22 23  1  0
 12 24  1  0
 24 25  1  0
 25 26  2  0
 26 27  1  0
 27 28  2  0
 28 29  1  0
 29 30  2  0
 30 25  1  0
 26 31  1  0
 30 32  1  0
 28 33  1  0
 31 34  1  0
M  END
> <chembl_id>
CHEMBL3741373

$$$$
