
  SciTegic02271515152D

 30 33  0  0  0  0            999 V2000
   18.2383  -20.6612    0.0000 C   0  0  2  0  0  0
   19.0632  -20.6742    0.0000 C   0  0  1  0  0  0
   18.6619  -19.9516    0.0000 C   0  0
   17.5177  -21.0628    0.0000 C   0  0
   19.7709  -21.0982    0.0000 C   0  0
   19.7575  -21.9231    0.0000 N   0  0
   20.4919  -20.6973    0.0000 O   0  0
   20.4651  -22.3473    0.0000 C   0  0
   16.8095  -20.6396    0.0000 O   0  0
   16.0889  -21.0412    0.0000 C   0  0
   17.6637  -20.0692    0.0000 C   0  0
   17.8915  -19.2756    0.0000 C   0  0
   17.3176  -18.6839    0.0000 C   0  0
   16.5167  -18.8854    0.0000 C   0  0
   16.2927  -19.6839    0.0000 C   0  0
   16.8681  -20.2721    0.0000 C   0  0
   15.3835  -20.6133    0.0000 C   0  0
   14.6634  -21.0143    0.0000 C   0  0
   14.6505  -21.8401    0.0000 C   0  0
   15.3637  -22.2632    0.0000 C   0  0
   16.0808  -21.8599    0.0000 C   0  0
   13.9555  -20.5907    0.0000 O   0  0
   13.9685  -19.7658    0.0000 C   0  0
   13.9304  -22.2426    0.0000 O   0  0
   13.2217  -21.8203    0.0000 C   0  0
   20.4694  -23.1688    0.0000 S   0  0
   21.2552  -23.4204    0.0000 C   0  0
   21.7372  -22.7508    0.0000 C   0  0
   21.2493  -22.0856    0.0000 N   0  0
   21.5135  -24.2039    0.0000 C   0  0
  2  1  1  0
  3  2  1  0
  1  3  1  0
  1  4  1  1
  2  5  1  1
  5  6  1  0
  5  7  2  0
  6  8  1  0
  4  9  1  0
  9 10  1  0
  1 11  1  0
 11 12  2  0
 12 13  1  0
 13 14  2  0
 14 15  1  0
 15 16  2  0
 16 11  1  0
 10 17  2  0
 17 18  1  0
 18 19  2  0
 19 20  1  0
 20 21  2  0
 21 10  1  0
 18 22  1  0
 22 23  1  0
 19 24  1  0
 24 25  1  0
  8 26  1  0
 26 27  1  0
 27 28  2  0
 28 29  1  0
 29  8  2  0
 27 30  1  0
M  END
> <chembl_id>
CHEMBL3343254

$$$$

  SciTegic02271515152D

 30 33  0  0  0  0            999 V2000
   14.6109   -5.5993    0.0000 C   0  0
   14.6097   -6.4259    0.0000 C   0  0
   15.3240   -6.8384    0.0000 C   0  0
   16.0397   -6.4254    0.0000 C   0  0
   16.0369   -5.5957    0.0000 C   0  0
   15.3221   -5.1868    0.0000 C   0  0
   16.7492   -5.1808    0.0000 O   0  0
   13.8969   -5.1873    0.0000 O   0  0
   13.8968   -4.3630    0.0000 C   0  0
   13.8956   -6.8375    0.0000 O   0  0
   13.1820   -6.4248    0.0000 C   0  0
   16.7461   -4.3565    0.0000 C   0  0
   17.4583   -3.9417    0.0000 C   0  0  2  0  0  0
   18.2797   -3.9348    0.0000 C   0  0  1  0  0  0
   17.8648   -3.2225    0.0000 C   0  0
   16.8687   -3.3512    0.0000 C   0  0
   18.9961   -4.3426    0.0000 C   0  0
   19.0010   -5.1669    0.0000 N   0  0
   19.7174   -5.5747    0.0000 C   0  0
   19.7185   -6.3997    0.0000 C   0  0
   20.4339   -6.8074    0.0000 C   0  0
   21.1463   -6.3909    0.0000 C   0  0
   21.1386   -5.5624    0.0000 C   0  0
   20.4225   -5.1584    0.0000 C   0  0
   17.0881   -2.5450    0.0000 C   0  0
   16.4993   -1.9549    0.0000 C   0  0
   15.6921   -2.1702    0.0000 C   0  0
   15.4771   -2.9810    0.0000 C   0  0
   16.0676   -3.5676    0.0000 C   0  0
   19.7074   -3.9261    0.0000 O   0  0
  1  2  2  0
  2  3  1  0
  3  4  2  0
  4  5  1  0
  5  6  2  0
  6  1  1  0
  5  7  1  0
  1  8  1  0
  8  9  1  0
  2 10  1  0
 10 11  1  0
  7 12  1  0
 13 12  1  1
 14 13  1  0
 15 14  1  0
 13 15  1  0
 13 16  1  0
 14 17  1  1
 17 18  1  0
 18 19  1  0
 19 20  1  0
 20 21  1  0
 21 22  1  0
 22 23  1  0
 23 24  1  0
 24 19  1  0
 16 25  2  0
 25 26  1  0
 26 27  2  0
 27 28  1  0
 28 29  2  0
 29 16  1  0
 17 30  2  0
M  END
> <chembl_id>
CHEMBL3343243

$$$$

  SciTegic12231509382D

 37 40  0  0  0  0            999 V2000
   13.7099   -9.2219    0.0000 N   0  0
   13.7099  -10.0469    0.0000 C   0  0
   14.4220  -10.4553    0.0000 C   0  0
   14.4220   -8.8051    0.0000 C   0  0  2  0  0  0
   15.1340   -9.2219    0.0000 C   0  0
   15.1324  -10.0451    0.0000 C   0  0
   15.8435  -10.4563    0.0000 C   0  0
   16.5566  -10.0455    0.0000 C   0  0
   16.5542   -9.2191    0.0000 C   0  0
   15.8426   -8.8116    0.0000 C   0  0
   14.4220   -7.9800    0.0000 C   0  0
   15.1365   -7.5675    0.0000 C   0  0
   15.1365   -6.7425    0.0000 C   0  0
   15.8577   -6.3309    0.0000 C   0  0
   15.8581   -5.5066    0.0000 C   0  0
   15.1430   -5.0995    0.0000 C   0  0
   14.4260   -5.5103    0.0000 C   0  0
   14.4293   -6.3331    0.0000 C   0  0
   12.9941   -8.8114    0.0000 C   0  0  2  0  0  0
   12.9917   -7.9863    0.0000 C   0  0
   12.2808   -9.2260    0.0000 C   0  0
   11.5650   -8.8156    0.0000 N   0  0
   12.2832  -10.0511    0.0000 O   0  0
   10.8517   -9.2303    0.0000 C   0  0
   13.7048   -7.5733    0.0000 C   0  0
   13.7028   -6.7490    0.0000 C   0  0
   12.9865   -6.3378    0.0000 C   0  0
   12.2708   -6.7568    0.0000 C   0  0
   12.2764   -7.5798    0.0000 C   0  0
   17.2674   -8.8042    0.0000 O   0  0
   17.9833   -9.2144    0.0000 C   0  0
   17.2716  -10.4573    0.0000 O   0  0
   17.2724  -11.2823    0.0000 C   0  0
   15.1419   -4.2744    0.0000 C   0  0
   15.8558   -3.8610    0.0000 F   0  0
   14.4267   -3.8629    0.0000 F   0  0
   15.1350   -3.4462    0.0000 F   0  0
  1  2  1  0
  1  4  1  0
  2  3  1  0
  3  6  1  0
  5  4  1  0
  5  6  2  0
  6  7  1  0
  7  8  2  0
  8  9  1  0
  9 10  2  0
 10  5  1  0
  4 11  1  1
 11 12  1  0
 12 13  1  0
 13 14  2  0
 14 15  1  0
 15 16  2  0
 16 17  1  0
 17 18  2  0
 18 13  1  0
  1 19  1  0
 19 20  1  1
 19 21  1  0
 21 22  1  0
 21 23  2  0
 22 24  1  0
 20 25  2  0
 25 26  1  0
 26 27  2  0
 27 28  1  0
 28 29  2  0
 29 20  1  0
  9 30  1  0
 30 31  1  0
  8 32  1  0
 32 33  1  0
 16 34  1  0
 34 35  1  0
 34 36  1  0
 34 37  1  0
M  END
> <chembl_id>
CHEMBL455136

$$$$

  SciTegic02271515152D

 30 33  0  0  0  0            999 V2000
   18.6550  -27.7112    0.0000 C   0  0  2  0  0  0
   19.4799  -27.7241    0.0000 C   0  0  1  0  0  0
   19.0787  -27.0016    0.0000 C   0  0
   17.9344  -28.1128    0.0000 C   0  0
   20.1876  -28.1481    0.0000 C   0  0
   20.1742  -28.9730    0.0000 N   0  0
   20.9086  -27.7472    0.0000 O   0  0
   20.8817  -29.3972    0.0000 C   0  0
   17.2262  -27.6895    0.0000 O   0  0
   16.5055  -28.0912    0.0000 C   0  0
   18.0803  -27.1192    0.0000 C   0  0
   18.3081  -26.3256    0.0000 C   0  0
   17.7343  -25.7339    0.0000 C   0  0
   16.9334  -25.9353    0.0000 C   0  0
   16.7094  -26.7337    0.0000 C   0  0
   17.2848  -27.3220    0.0000 C   0  0
   15.8003  -27.6632    0.0000 C   0  0
   15.0801  -28.0642    0.0000 C   0  0
   15.0671  -28.8899    0.0000 C   0  0
   15.7803  -29.3131    0.0000 C   0  0
   16.4976  -28.9098    0.0000 C   0  0
   14.3722  -27.6406    0.0000 O   0  0
   14.3851  -26.8157    0.0000 C   0  0
   14.3470  -29.2925    0.0000 O   0  0
   13.6383  -28.8702    0.0000 C   0  0
   20.8862  -30.2188    0.0000 N   0  0
   21.6719  -30.4703    0.0000 O   0  0
   22.1538  -29.8007    0.0000 C   0  0
   21.6660  -29.1355    0.0000 C   0  0
   22.9788  -29.7971    0.0000 C   0  0
  2  1  1  0
  3  2  1  0
  1  3  1  0
  1  4  1  1
  2  5  1  1
  5  6  1  0
  5  7  2  0
  6  8  1  0
  4  9  1  0
  9 10  1  0
  1 11  1  0
 11 12  2  0
 12 13  1  0
 13 14  2  0
 14 15  1  0
 15 16  2  0
 16 11  1  0
 10 17  2  0
 17 18  1  0
 18 19  2  0
 19 20  1  0
 20 21  2  0
 21 10  1  0
 18 22  1  0
 22 23  1  0
 19 24  1  0
 24 25  1  0
  8 26  2  0
 26 27  1  0
 27 28  1  0
 28 29  2  0
 29  8  1  0
 28 30  1  0
M  END
> <chembl_id>
CHEMBL3343256

$$$$

  SciTegic02271515152D

 33 37  0  0  0  0            999 V2000
   15.2607  -13.1770    0.0000 C   0  0
   15.2596  -14.0034    0.0000 C   0  0
   15.9736  -14.4159    0.0000 C   0  0
   16.6893  -14.0029    0.0000 C   0  0
   16.6865  -13.1734    0.0000 C   0  0
   15.9718  -12.7647    0.0000 C   0  0
   17.3985  -12.7586    0.0000 O   0  0
   14.5470  -12.7651    0.0000 O   0  0
   14.5468  -11.9410    0.0000 C   0  0
   14.5457  -14.4149    0.0000 O   0  0
   13.8323  -14.0023    0.0000 C   0  0
   17.3954  -11.9345    0.0000 C   0  0
   18.1075  -11.5198    0.0000 C   0  0  2  0  0  0
   18.9286  -11.5129    0.0000 C   0  0  1  0  0  0
   18.5139  -10.8008    0.0000 C   0  0
   17.5180  -10.9295    0.0000 C   0  0
   19.6448  -11.9206    0.0000 C   0  0
   19.6498  -12.7447    0.0000 N   0  0
   17.7375  -10.1235    0.0000 C   0  0
   17.1487   -9.5335    0.0000 C   0  0
   16.3418   -9.7487    0.0000 C   0  0
   16.1268  -10.5592    0.0000 C   0  0
   16.7171  -11.1457    0.0000 C   0  0
   20.3560  -11.5042    0.0000 O   0  0
   18.9369  -13.1588    0.0000 C   0  0
   18.9399  -13.9792    0.0000 C   0  0
   19.6543  -14.3908    0.0000 C   0  0
   20.3658  -13.1489    0.0000 C   0  0
   20.3664  -13.9743    0.0000 C   0  0
   21.0804  -14.3847    0.0000 C   0  0
   21.7943  -13.9708    0.0000 C   0  0
   21.7896  -13.1423    0.0000 C   0  0
   21.0752  -12.7357    0.0000 C   0  0
  1  2  2  0
  2  3  1  0
  3  4  2  0
  4  5  1  0
  5  6  2  0
  6  1  1  0
  5  7  1  0
  1  8  1  0
  8  9  1  0
  2 10  1  0
 10 11  1  0
  7 12  1  0
 13 12  1  1
 14 13  1  0
 15 14  1  0
 13 15  1  0
 13 16  1  0
 14 17  1  1
 17 18  1  0
 16 19  2  0
 19 20  1  0
 20 21  2  0
 21 22  1  0
 22 23  2  0
 23 16  1  0
 17 24  2  0
 18 25  1  0
 18 28  1  0
 25 26  1  0
 26 27  1  0
 27 29  1  0
 28 29  2  0
 29 30  1  0
 30 31  2  0
 31 32  1  0
 32 33  2  0
 33 28  1  0
M  END
> <chembl_id>
CHEMBL3343245

$$$$

  SciTegic02271515152D

 31 34  0  0  0  0            999 V2000
   18.3372   -3.1582    0.0000 C   0  0  2  0  0  0
   19.1622   -3.1582    0.0000 C   0  0  1  0  0  0
   18.7497   -2.4421    0.0000 C   0  0
   17.6229   -3.5711    0.0000 C   0  0
   19.8764   -3.5711    0.0000 C   0  0
   19.8760   -4.3961    0.0000 N   0  0
   20.5911   -3.1591    0.0000 O   0  0
   20.5903   -4.8090    0.0000 C   0  0
   16.9083   -3.1591    0.0000 O   0  0
   16.1940   -3.5719    0.0000 C   0  0
   17.7534   -2.5753    0.0000 C   0  0
   17.9687   -1.7783    0.0000 C   0  0
   17.3857   -1.1957    0.0000 C   0  0
   16.5881   -1.4096    0.0000 C   0  0
   16.3766   -2.2115    0.0000 C   0  0
   16.9611   -2.7907    0.0000 C   0  0
   15.4821   -3.1551    0.0000 C   0  0
   14.7684   -3.5673    0.0000 C   0  0
   14.7684   -4.3931    0.0000 C   0  0
   15.4881   -4.8051    0.0000 C   0  0
   16.1989   -4.3906    0.0000 C   0  0
   20.5882   -5.6343    0.0000 C   0  0
   21.3015   -6.0471    0.0000 C   0  0
   22.0172   -5.6350    0.0000 C   0  0
   22.0149   -4.8057    0.0000 C   0  0
   21.3010   -4.3966    0.0000 N   0  0
   14.0539   -3.1548    0.0000 C   0  0
   14.0538   -2.3298    0.0000 O   0  0
   13.3394   -1.9173    0.0000 C   0  0
   14.0546   -4.8069    0.0000 O   0  0
   13.3395   -4.3957    0.0000 C   0  0
  2  1  1  0
  3  2  1  0
  1  3  1  0
  1  4  1  1
  2  5  1  1
  5  6  1  0
  5  7  2  0
  6  8  1  0
  4  9  1  0
  9 10  1  0
  1 11  1  0
 11 12  2  0
 12 13  1  0
 13 14  2  0
 14 15  1  0
 15 16  2  0
 16 11  1  0
 10 17  2  0
 17 18  1  0
 18 19  2  0
 19 20  1  0
 20 21  2  0
 21 10  1  0
  8 22  2  0
 22 23  1  0
 23 24  2  0
 24 25  1  0
 25 26  2  0
 26  8  1  0
 18 27  1  0
 27 28  1  0
 28 29  1  0
 19 30  1  0
 30 31  1  0
M  END
> <chembl_id>
CHEMBL3343250

$$$$

  SciTegic02271515152D

 26 29  0  0  0  0            999 V2000
   18.4578  -20.5828    0.0000 C   0  0  2  0  0  0
   19.2828  -20.5828    0.0000 C   0  0  1  0  0  0
   18.8703  -19.8666    0.0000 C   0  0
   17.7436  -20.9957    0.0000 C   0  0
   19.9970  -20.9957    0.0000 C   0  0
   19.9966  -21.8207    0.0000 N   0  0
   20.7117  -20.5835    0.0000 O   0  0
   20.7109  -22.2335    0.0000 C   0  0
   17.0289  -20.5835    0.0000 O   0  0
   16.3147  -20.9964    0.0000 C   0  0
   17.8740  -19.9999    0.0000 C   0  0
   18.0893  -19.2028    0.0000 C   0  0
   17.5063  -18.6203    0.0000 C   0  0
   16.7086  -18.8342    0.0000 C   0  0
   16.4972  -19.6360    0.0000 C   0  0
   17.0817  -20.2151    0.0000 C   0  0
   15.6028  -20.5796    0.0000 C   0  0
   14.8890  -20.9917    0.0000 C   0  0
   14.8890  -21.8176    0.0000 C   0  0
   15.6087  -22.2296    0.0000 C   0  0
   16.3195  -21.8150    0.0000 C   0  0
   20.7088  -23.0588    0.0000 C   0  0
   21.4221  -23.4715    0.0000 C   0  0
   22.1378  -23.0595    0.0000 C   0  0
   22.1355  -22.2301    0.0000 C   0  0
   21.4216  -21.8211    0.0000 N   0  0
  2  1  1  0
  3  2  1  0
  1  3  1  0
  1  4  1  1
  2  5  1  1
  5  6  1  0
  5  7  2  0
  6  8  1  0
  4  9  1  0
  9 10  1  0
  1 11  1  0
 11 12  2  0
 12 13  1  0
 13 14  2  0
 14 15  1  0
 15 16  2  0
 16 11  1  0
 10 17  2  0
 17 18  1  0
 18 19  2  0
 19 20  1  0
 20 21  2  0
 21 10  1  0
  8 22  2  0
 22 23  1  0
 23 24  2  0
 24 25  1  0
 25 26  2  0
 26  8  1  0
M  END
> <chembl_id>
CHEMBL3343247

$$$$

  SciTegic02271515152D

 29 32  0  0  0  0            999 V2000
   14.7964  -24.4050    0.0000 C   0  0
   14.7952  -25.2315    0.0000 C   0  0
   15.5094  -25.6440    0.0000 C   0  0
   16.2251  -25.2311    0.0000 C   0  0
   16.2222  -24.4013    0.0000 C   0  0
   15.5076  -23.9926    0.0000 C   0  0
   16.9345  -23.9865    0.0000 O   0  0
   14.0826  -23.9931    0.0000 O   0  0
   14.0824  -23.1689    0.0000 C   0  0
   14.0812  -25.6431    0.0000 O   0  0
   13.3677  -25.2304    0.0000 C   0  0
   16.9314  -23.1624    0.0000 C   0  0
   17.6436  -22.7476    0.0000 C   0  0  2  0  0  0
   18.4648  -22.7407    0.0000 C   0  0  1  0  0  0
   18.0499  -22.0285    0.0000 C   0  0
   17.0540  -22.1572    0.0000 C   0  0
   19.1810  -23.1485    0.0000 C   0  0
   19.1860  -23.9726    0.0000 N   0  0
   19.9023  -24.3804    0.0000 C   0  0
   19.9034  -25.2053    0.0000 C   0  0
   20.6187  -25.6130    0.0000 C   0  0
   21.3310  -25.1965    0.0000 C   0  0
   21.3233  -24.3680    0.0000 C   0  0
   20.6073  -23.9641    0.0000 C   0  0
   17.2735  -21.3512    0.0000 C   0  0
   16.6847  -20.7610    0.0000 C   0  0
   15.8775  -20.9763    0.0000 C   0  0
   15.6626  -21.7870    0.0000 C   0  0
   16.2529  -22.3735    0.0000 C   0  0
  1  2  2  0
  2  3  1  0
  3  4  2  0
  4  5  1  0
  5  6  2  0
  6  1  1  0
  5  7  1  0
  1  8  1  0
  8  9  1  0
  2 10  1  0
 10 11  1  0
  7 12  1  0
 13 12  1  1
 14 13  1  0
 15 14  1  0
 13 15  1  0
 13 16  1  0
 14 17  1  1
 17 18  1  0
 18 19  1  0
 19 20  2  0
 20 21  1  0
 21 22  2  0
 22 23  1  0
 23 24  2  0
 24 19  1  0
 16 25  2  0
 25 26  1  0
 26 27  2  0
 27 28  1  0
 28 29  2  0
 29 16  1  0
M  END
> <chembl_id>
CHEMBL3343241

$$$$

  SciTegic02271515152D

 29 32  0  0  0  0            999 V2000
   16.1748  -14.5148    0.0000 C   0  0
   16.1736  -15.3416    0.0000 C   0  0
   16.8879  -15.7542    0.0000 C   0  0
   17.6038  -15.3411    0.0000 C   0  0
   17.6010  -14.5112    0.0000 C   0  0
   16.8861  -14.1023    0.0000 C   0  0
   18.3134  -14.0962    0.0000 O   0  0
   15.4607  -14.1028    0.0000 O   0  0
   15.4605  -13.2784    0.0000 C   0  0
   15.4593  -15.7533    0.0000 O   0  0
   14.7456  -15.3404    0.0000 C   0  0
   18.3103  -13.2718    0.0000 C   0  0
   19.0226  -12.8570    0.0000 C   0  0  2  0  0  0
   19.8441  -12.8500    0.0000 C   0  0  1  0  0  0
   19.4292  -12.1377    0.0000 C   0  0
   18.4329  -12.2664    0.0000 C   0  0
   20.5606  -13.2579    0.0000 C   0  0
   20.5656  -14.0823    0.0000 C   0  0
   21.2721  -12.8413    0.0000 O   0  0
   19.8518  -14.4960    0.0000 C   0  0
   19.8565  -15.3197    0.0000 C   0  0
   20.5735  -15.7283    0.0000 C   0  0
   21.2873  -15.3074    0.0000 C   0  0
   21.2791  -14.4850    0.0000 C   0  0
   18.6524  -11.4600    0.0000 C   0  0
   18.0634  -10.8698    0.0000 C   0  0
   17.2561  -11.0851    0.0000 C   0  0
   17.0411  -11.8960    0.0000 C   0  0
   17.6316  -12.4828    0.0000 C   0  0
  1  2  2  0
  2  3  1  0
  3  4  2  0
  4  5  1  0
  5  6  2  0
  6  1  1  0
  5  7  1  0
  1  8  1  0
  8  9  1  0
  2 10  1  0
 10 11  1  0
  7 12  1  0
 13 12  1  1
 14 13  1  0
 15 14  1  0
 13 15  1  0
 13 16  1  0
 14 17  1  1
 17 18  1  0
 17 19  2  0
 18 20  2  0
 20 21  1  0
 21 22  2  0
 22 23  1  0
 23 24  2  0
 24 18  1  0
 16 25  2  0
 25 26  1  0
 26 27  2  0
 27 28  1  0
 28 29  2  0
 29 16  1  0
M  END
> <chembl_id>
CHEMBL3343239

$$$$

  SciTegic02271515152D

 28 31  0  0  0  0            999 V2000
   19.6162  -27.6992    0.0000 C   0  0  2  0  0  0
   20.4411  -27.6992    0.0000 C   0  0  1  0  0  0
   20.0286  -26.9831    0.0000 C   0  0
   18.9019  -28.1121    0.0000 C   0  0
   21.1554  -28.1121    0.0000 C   0  0
   21.1550  -28.9371    0.0000 N   0  0
   21.8700  -27.7000    0.0000 O   0  0
   21.8692  -29.3499    0.0000 C   0  0
   18.1873  -27.7000    0.0000 O   0  0
   17.4730  -28.1128    0.0000 C   0  0
   19.0323  -27.1163    0.0000 C   0  0
   19.2477  -26.3193    0.0000 C   0  0
   18.6647  -25.7367    0.0000 C   0  0
   17.8669  -25.9506    0.0000 C   0  0
   17.6555  -26.7525    0.0000 C   0  0
   18.2401  -27.3316    0.0000 C   0  0
   16.7611  -27.6961    0.0000 C   0  0
   16.0474  -28.1082    0.0000 C   0  0
   16.0473  -28.9341    0.0000 C   0  0
   16.7670  -29.3461    0.0000 C   0  0
   17.4778  -28.9315    0.0000 C   0  0
   21.8670  -30.1753    0.0000 C   0  0
   22.5804  -30.5880    0.0000 C   0  0
   23.2961  -30.1759    0.0000 C   0  0
   23.2939  -29.3466    0.0000 C   0  0
   22.5799  -28.9376    0.0000 N   0  0
   15.3336  -29.3479    0.0000 O   0  0
   14.6184  -28.9367    0.0000 C   0  0
  2  1  1  0
  3  2  1  0
  1  3  1  0
  1  4  1  1
  2  5  1  1
  5  6  1  0
  5  7  2  0
  6  8  1  0
  4  9  1  0
  9 10  1  0
  1 11  1  0
 11 12  2  0
 12 13  1  0
 13 14  2  0
 14 15  1  0
 15 16  2  0
 16 11  1  0
 10 17  2  0
 17 18  1  0
 18 19  2  0
 19 20  1  0
 20 21  2  0
 21 10  1  0
  8 22  2  0
 22 23  1  0
 23 24  2  0
 24 25  1  0
 25 26  2  0
 26  8  1  0
 19 27  1  0
 27 28  1  0
M  END
> <chembl_id>
CHEMBL3341773

$$$$

  SciTegic02271515152D

 32 35  0  0  0  0            999 V2000
   18.8612   -3.2389    0.0000 C   0  0  2  0  0  0
   19.6857   -3.2518    0.0000 C   0  0  1  0  0  0
   19.2847   -2.5296    0.0000 C   0  0
   18.1410   -3.6402    0.0000 C   0  0
   20.3930   -3.6755    0.0000 C   0  0
   20.3797   -4.5000    0.0000 N   0  0
   21.1136   -3.2749    0.0000 O   0  0
   17.4333   -3.2172    0.0000 O   0  0
   16.7130   -3.6186    0.0000 C   0  0
   16.0081   -3.1909    0.0000 C   0  0
   15.2884   -3.5917    0.0000 C   0  0
   15.2754   -4.4169    0.0000 C   0  0
   15.9881   -4.8399    0.0000 C   0  0
   16.7050   -4.4368    0.0000 C   0  0
   14.5808   -3.1682    0.0000 O   0  0
   14.5937   -2.3439    0.0000 C   0  0
   14.5557   -4.8193    0.0000 O   0  0
   13.8474   -4.3973    0.0000 C   0  0
   21.0870   -4.9238    0.0000 C   0  0
   21.0720   -5.7477    0.0000 C   0  0
   21.7785   -6.1714    0.0000 C   0  0
   22.5001   -5.7707    0.0000 C   0  0
   22.5109   -4.9419    0.0000 C   0  0
   21.8037   -4.5220    0.0000 N   0  0
   21.7691   -6.9937    0.0000 C   0  0
   21.7553   -7.8181    0.0000 N   0  0
   18.4438   -2.5194    0.0000 C   0  0
   18.8611   -1.7986    0.0000 C   0  0
   18.4443   -1.0797    0.0000 C   0  0
   17.6117   -1.0811    0.0000 C   0  0
   17.1976   -1.8074    0.0000 C   0  0
   17.6167   -2.5233    0.0000 C   0  0
  2  1  1  0
  3  2  1  0
  1  3  1  0
  1  4  1  1
  2  5  1  1
  5  6  1  0
  5  7  2  0
  4  8  1  0
  8  9  1  0
  9 10  2  0
 10 11  1  0
 11 12  2  0
 12 13  1  0
 13 14  2  0
 14  9  1  0
 11 15  1  0
 15 16  1  0
 12 17  1  0
 17 18  1  0
  6 19  1  0
 19 20  2  0
 20 21  1  0
 21 22  2  0
 22 23  1  0
 23 24  2  0
 24 19  1  0
 25 26  3  0
 21 25  1  0
  1 27  1  0
 27 28  2  0
 28 29  1  0
 29 30  2  0
 30 31  1  0
 31 32  2  0
 32 27  1  0
M  END
> <chembl_id>
CHEMBL3343258

$$$$

  SciTegic02271515152D

 31 34  0  0  0  0            999 V2000
    4.0613  -13.7696    0.0000 C   0  0
    4.0600  -14.5962    0.0000 C   0  0
    4.7742  -15.0086    0.0000 C   0  0
    5.4899  -14.5957    0.0000 C   0  0
    5.4871  -13.7660    0.0000 C   0  0
    4.7724  -13.3573    0.0000 C   0  0
    6.1993  -13.3513    0.0000 O   0  0
    3.3474  -13.3577    0.0000 O   0  0
    3.3472  -12.5335    0.0000 C   0  0
    3.3460  -15.0077    0.0000 O   0  0
    2.6325  -14.5951    0.0000 C   0  0
    6.1962  -12.5271    0.0000 C   0  0
    6.9083  -12.1123    0.0000 C   0  0  2  0  0  0
    7.7296  -12.1054    0.0000 C   0  0  1  0  0  0
    7.3148  -11.3932    0.0000 C   0  0
    6.3187  -11.5220    0.0000 C   0  0
    8.4459  -12.5132    0.0000 C   0  0
    8.4508  -13.3374    0.0000 N   0  0
    9.1671  -13.7450    0.0000 C   0  0
    9.1682  -14.5700    0.0000 C   0  0
    9.8836  -14.9777    0.0000 C   0  0
   10.5958  -14.5611    0.0000 C   0  0
   10.5881  -13.7327    0.0000 C   0  0
    9.8722  -13.3288    0.0000 C   0  0
    6.5382  -10.7158    0.0000 C   0  0
    5.9494  -10.1257    0.0000 C   0  0
    5.1423  -10.3409    0.0000 C   0  0
    4.9273  -11.1516    0.0000 C   0  0
    5.5177  -11.7382    0.0000 C   0  0
    9.1571  -12.0967    0.0000 O   0  0
    7.7396  -13.7537    0.0000 C   0  0
  1  2  2  0
  2  3  1  0
  3  4  2  0
  4  5  1  0
  5  6  2  0
  6  1  1  0
  5  7  1  0
  1  8  1  0
  8  9  1  0
  2 10  1  0
 10 11  1  0
  7 12  1  0
 13 12  1  1
 14 13  1  0
 15 14  1  0
 13 15  1  0
 13 16  1  0
 14 17  1  1
 17 18  1  0
 18 19  1  0
 19 20  2  0
 20 21  1  0
 21 22  2  0
 22 23  1  0
 23 24  2  0
 24 19  1  0
 16 25  2  0
 25 26  1  0
 26 27  2  0
 27 28  1  0
 28 29  2  0
 29 16  1  0
 17 30  2  0
 18 31  1  0
M  END
> <chembl_id>
CHEMBL3343244

$$$$

  SciTegic02271515152D

 32 35  0  0  0  0            999 V2000
    7.1722  -13.1045    0.0000 C   0  0  2  0  0  0
    7.9966  -13.1174    0.0000 C   0  0  1  0  0  0
    7.5956  -12.3952    0.0000 C   0  0
    6.4519  -13.5058    0.0000 C   0  0
    8.7040  -13.5412    0.0000 C   0  0
    8.6905  -14.3656    0.0000 N   0  0
    9.4246  -13.1405    0.0000 O   0  0
    5.7441  -13.0828    0.0000 O   0  0
    5.0239  -13.4843    0.0000 C   0  0
    4.3189  -13.0565    0.0000 C   0  0
    3.5992  -13.4573    0.0000 C   0  0
    3.5862  -14.2826    0.0000 C   0  0
    4.2990  -14.7056    0.0000 C   0  0
    5.0158  -14.3025    0.0000 C   0  0
    2.8916  -13.0339    0.0000 O   0  0
    2.9045  -12.2095    0.0000 C   0  0
    2.8665  -14.6850    0.0000 O   0  0
    2.1582  -14.2629    0.0000 C   0  0
    9.3979  -14.7894    0.0000 C   0  0
    9.3830  -15.6134    0.0000 C   0  0
   10.0894  -16.0371    0.0000 C   0  0
   10.8112  -15.6364    0.0000 C   0  0
   10.8219  -14.8076    0.0000 C   0  0
   10.1148  -14.3876    0.0000 N   0  0
   11.5195  -16.0579    0.0000 C   0  0
   12.2273  -16.4808    0.0000 N   0  0
    6.7547  -12.3850    0.0000 C   0  0
    7.1720  -11.6642    0.0000 C   0  0
    6.7552  -10.9453    0.0000 C   0  0
    5.9226  -10.9467    0.0000 C   0  0
    5.5084  -11.6730    0.0000 C   0  0
    5.9276  -12.3889    0.0000 C   0  0
  2  1  1  0
  3  2  1  0
  1  3  1  0
  1  4  1  1
  2  5  1  1
  5  6  1  0
  5  7  2  0
  4  8  1  0
  8  9  1  0
  9 10  2  0
 10 11  1  0
 11 12  2  0
 12 13  1  0
 13 14  2  0
 14  9  1  0
 11 15  1  0
 15 16  1  0
 12 17  1  0
 17 18  1  0
  6 19  1  0
 19 20  2  0
 20 21  1  0
 21 22  2  0
 22 23  1  0
 23 24  2  0
 24 19  1  0
 25 26  3  0
 22 25  1  0
  1 27  1  0
 27 28  2  0
 28 29  1  0
 29 30  2  0
 30 31  1  0
 31 32  2  0
 32 27  1  0
M  END
> <chembl_id>
CHEMBL3343259

$$$$

  SciTegic02271515152D

 30 33  0  0  0  0            999 V2000
    7.2467  -26.9320    0.0000 C   0  0  2  0  0  0
    8.0716  -26.9449    0.0000 C   0  0  1  0  0  0
    7.6704  -26.2224    0.0000 C   0  0
    6.5261  -27.3336    0.0000 C   0  0
    8.7793  -27.3690    0.0000 C   0  0
    8.7660  -28.1939    0.0000 N   0  0
    9.5004  -26.9681    0.0000 O   0  0
    9.4736  -28.6181    0.0000 C   0  0
    5.8180  -26.9103    0.0000 O   0  0
    5.0974  -27.3120    0.0000 C   0  0
    6.6722  -26.3400    0.0000 C   0  0
    6.8999  -25.5464    0.0000 C   0  0
    6.3261  -24.9547    0.0000 C   0  0
    5.5251  -25.1561    0.0000 C   0  0
    5.3011  -25.9546    0.0000 C   0  0
    5.8766  -26.5428    0.0000 C   0  0
    4.3920  -26.8841    0.0000 C   0  0
    3.6719  -27.2851    0.0000 C   0  0
    3.6590  -28.1108    0.0000 C   0  0
    4.3721  -28.5340    0.0000 C   0  0
    5.0893  -28.1307    0.0000 C   0  0
    2.9640  -26.8615    0.0000 O   0  0
    2.9768  -26.0366    0.0000 C   0  0
    2.9389  -28.5134    0.0000 O   0  0
    2.2302  -28.0911    0.0000 C   0  0
    9.4779  -29.4396    0.0000 S   0  0
   10.2636  -29.6911    0.0000 C   0  0
   10.7457  -29.0216    0.0000 C   0  0
   10.2578  -28.3564    0.0000 N   0  0
   11.5707  -29.0179    0.0000 C   0  0
  2  1  1  0
  3  2  1  0
  1  3  1  0
  1  4  1  1
  2  5  1  1
  5  6  1  0
  5  7  2  0
  6  8  1  0
  4  9  1  0
  9 10  1  0
  1 11  1  0
 11 12  2  0
 12 13  1  0
 13 14  2  0
 14 15  1  0
 15 16  2  0
 16 11  1  0
 10 17  2  0
 17 18  1  0
 18 19  2  0
 19 20  1  0
 20 21  2  0
 21 10  1  0
 18 22  1  0
 22 23  1  0
 19 24  1  0
 24 25  1  0
  8 26  1  0
 26 27  1  0
 27 28  2  0
 28 29  1  0
 29  8  2  0
 28 30  1  0
M  END
> <chembl_id>
CHEMBL3343255

$$$$

  SciTegic02271515152D

 30 33  0  0  0  0            999 V2000
    3.6704  -24.7827    0.0000 C   0  0
    3.6693  -25.6093    0.0000 C   0  0
    4.3834  -26.0218    0.0000 C   0  0
    5.0993  -25.6088    0.0000 C   0  0
    5.0964  -24.7790    0.0000 C   0  0
    4.3816  -24.3702    0.0000 C   0  0
    5.8087  -24.3642    0.0000 O   0  0
    2.9564  -24.3706    0.0000 O   0  0
    2.9562  -23.5463    0.0000 C   0  0
    2.9550  -26.0208    0.0000 O   0  0
    2.2415  -25.6082    0.0000 C   0  0
    5.8056  -23.5399    0.0000 C   0  0
    6.5179  -23.1251    0.0000 C   0  0  2  0  0  0
    7.3392  -23.1181    0.0000 C   0  0  1  0  0  0
    6.9244  -22.4059    0.0000 C   0  0
    5.9282  -22.5346    0.0000 C   0  0
    8.0555  -23.5259    0.0000 C   0  0
    8.0606  -24.3502    0.0000 C   0  0
    8.7668  -23.1095    0.0000 O   0  0
    8.7768  -24.7580    0.0000 C   0  0
    8.7779  -25.5830    0.0000 C   0  0
    9.4935  -25.9908    0.0000 C   0  0
   10.2058  -25.5743    0.0000 C   0  0
   10.1981  -24.7457    0.0000 C   0  0
    9.4820  -24.3418    0.0000 C   0  0
    6.1477  -21.7284    0.0000 C   0  0
    5.5588  -21.1382    0.0000 C   0  0
    4.7517  -21.3534    0.0000 C   0  0
    4.5366  -22.1642    0.0000 C   0  0
    5.1270  -22.7509    0.0000 C   0  0
  1  2  2  0
  2  3  1  0
  3  4  2  0
  4  5  1  0
  5  6  2  0
  6  1  1  0
  5  7  1  0
  1  8  1  0
  8  9  1  0
  2 10  1  0
 10 11  1  0
  7 12  1  0
 13 12  1  1
 14 13  1  0
 15 14  1  0
 13 15  1  0
 13 16  1  0
 14 17  1  1
 17 18  1  0
 17 19  2  0
 18 20  1  0
 20 21  2  0
 21 22  1  0
 22 23  2  0
 23 24  1  0
 24 25  2  0
 25 20  1  0
 16 26  2  0
 26 27  1  0
 27 28  2  0
 28 29  1  0
 29 30  2  0
 30 16  1  0
M  END
> <chembl_id>
CHEMBL3343240

$$$$

  SciTegic02271515152D

 30 33  0  0  0  0            999 V2000
   19.5039  -12.1831    0.0000 C   0  0  2  0  0  0
   20.3288  -12.1831    0.0000 C   0  0  1  0  0  0
   19.9164  -11.4670    0.0000 C   0  0
   18.7897  -12.5960    0.0000 C   0  0
   21.0431  -12.5960    0.0000 C   0  0
   21.0427  -13.4210    0.0000 N   0  0
   21.7578  -12.1838    0.0000 O   0  0
   21.7569  -13.8338    0.0000 C   0  0
   18.0749  -12.1838    0.0000 O   0  0
   17.3607  -12.5967    0.0000 C   0  0
   18.9201  -11.6002    0.0000 C   0  0
   19.1353  -10.8032    0.0000 C   0  0
   18.5523  -10.2206    0.0000 C   0  0
   17.7547  -10.4345    0.0000 C   0  0
   17.5432  -11.2364    0.0000 C   0  0
   18.1278  -11.8155    0.0000 C   0  0
   16.6487  -12.1800    0.0000 C   0  0
   15.9350  -12.5921    0.0000 C   0  0
   15.9350  -13.4180    0.0000 C   0  0
   16.6547  -13.8300    0.0000 C   0  0
   17.3655  -13.4154    0.0000 C   0  0
   21.7548  -14.6592    0.0000 C   0  0
   22.4682  -15.0719    0.0000 C   0  0
   23.1839  -14.6598    0.0000 C   0  0
   23.1817  -13.8305    0.0000 N   0  0
   22.4676  -13.4215    0.0000 C   0  0
   15.2205  -12.1797    0.0000 O   0  0
   15.2205  -11.3547    0.0000 C   0  0
   15.2212  -13.8318    0.0000 O   0  0
   14.5061  -13.4206    0.0000 C   0  0
  2  1  1  0
  3  2  1  0
  1  3  1  0
  1  4  1  1
  2  5  1  1
  5  6  1  0
  5  7  2  0
  6  8  1  0
  4  9  1  0
  9 10  1  0
  1 11  1  0
 11 12  2  0
 12 13  1  0
 13 14  2  0
 14 15  1  0
 15 16  2  0
 16 11  1  0
 10 17  2  0
 17 18  1  0
 18 19  2  0
 19 20  1  0
 20 21  2  0
 21 10  1  0
  8 22  2  0
 22 23  1  0
 23 24  2  0
 24 25  1  0
 25 26  2  0
 26  8  1  0
 18 27  1  0
 27 28  1  0
 19 29  1  0
 29 30  1  0
M  END
> <chembl_id>
CHEMBL3343252

$$$$

  SciTegic02271515152D

 31 34  0  0  0  0            999 V2000
    6.5541  -11.4249    0.0000 C   0  0  2  0  0  0
    7.3791  -11.4249    0.0000 C   0  0  1  0  0  0
    6.9666  -10.7087    0.0000 C   0  0
    5.8398  -11.8377    0.0000 C   0  0
    8.0933  -11.8377    0.0000 C   0  0
    8.0929  -12.6627    0.0000 N   0  0
    8.8080  -11.4256    0.0000 O   0  0
    8.8072  -13.0756    0.0000 C   0  0
    5.1252  -11.4256    0.0000 O   0  0
    4.4109  -11.8385    0.0000 C   0  0
    5.9702  -10.8420    0.0000 C   0  0
    6.1856  -10.0449    0.0000 C   0  0
    5.6026   -9.4623    0.0000 C   0  0
    4.8048   -9.6762    0.0000 C   0  0
    4.5934  -10.4781    0.0000 C   0  0
    5.1780  -11.0572    0.0000 C   0  0
    3.6990  -11.4217    0.0000 C   0  0
    2.9852  -11.8339    0.0000 C   0  0
    2.9852  -12.6597    0.0000 C   0  0
    3.7049  -13.0717    0.0000 C   0  0
    4.4157  -12.6572    0.0000 C   0  0
    8.8050  -13.9009    0.0000 C   0  0
    9.5184  -14.3137    0.0000 C   0  0
   10.2341  -13.9015    0.0000 C   0  0
   10.2318  -13.0723    0.0000 C   0  0
    9.5179  -12.6632    0.0000 N   0  0
    2.2708  -11.4214    0.0000 O   0  0
    2.2707  -10.5964    0.0000 C   0  0
    2.2715  -13.0736    0.0000 C   0  0
    1.5563  -12.6624    0.0000 O   0  0
    0.8426  -13.0762    0.0000 C   0  0
  2  1  1  0
  3  2  1  0
  1  3  1  0
  1  4  1  1
  2  5  1  1
  5  6  1  0
  5  7  2  0
  6  8  1  0
  4  9  1  0
  9 10  1  0
  1 11  1  0
 11 12  2  0
 12 13  1  0
 13 14  2  0
 14 15  1  0
 15 16  2  0
 16 11  1  0
 10 17  2  0
 17 18  1  0
 18 19  2  0
 19 20  1  0
 20 21  2  0
 21 10  1  0
  8 22  2  0
 22 23  1  0
 23 24  2  0
 24 25  1  0
 25 26  2  0
 26  8  1  0
 18 27  1  0
 27 28  1  0
 19 29  1  0
 29 30  1  0
 30 31  1  0
M  END
> <chembl_id>
CHEMBL3343251

$$$$

  SciTegic12231509382D

 34 38  0  0  0  0            999 V2000
   13.1800   -0.5042    0.0000 C   0  0
   13.1800   -1.3293    0.0000 C   0  0
   13.8921   -1.7377    0.0000 N   0  0
   14.6042   -1.3293    0.0000 C   0  0  1  0  0  0
   14.6042   -0.5042    0.0000 C   0  0
   13.8921   -0.0875    0.0000 C   0  0
   13.8921   -2.5626    0.0000 C   0  0
   13.1776   -2.9751    0.0000 C   0  0
   14.6066   -2.9752    0.0000 O   0  0
   12.3901   -2.7202    0.0000 N   0  0
   11.9059   -3.3882    0.0000 C   0  0
   12.3917   -4.0552    0.0000 S   0  0
   13.1765   -3.7991    0.0000 C   0  0
   15.3181   -1.7428    0.0000 C   0  0
   16.0332   -1.3313    0.0000 N   0  0
   16.7471   -1.7449    0.0000 C   0  0
   17.4622   -1.3334    0.0000 C   0  0
   16.7459   -2.5700    0.0000 O   0  0
   18.8927   -0.5120    0.0000 C   0  0
   18.1737   -0.0985    0.0000 C   0  0
   17.4620   -0.5118    0.0000 C   0  0
   18.8911   -1.3379    0.0000 C   0  0
   18.1759   -1.7472    0.0000 C   0  0
   18.3442   -2.5538    0.0000 C   0  0
   19.1634   -2.6432    0.0000 C   0  0
   19.5013   -1.8916    0.0000 O   0  0
   11.0809   -3.3892    0.0000 C   0  0
   13.9083   -4.1802    0.0000 C   0  0
   13.9410   -5.0043    0.0000 C   0  0
   14.6719   -5.3854    0.0000 C   0  0
   15.3688   -4.9421    0.0000 C   0  0
   15.3301   -4.1137    0.0000 C   0  0
   14.5988   -3.7364    0.0000 C   0  0
   16.1011   -5.3222    0.0000 F   0  0
  1  2  1  0
  1  6  1  0
  2  3  1  0
  3  4  1  0
  4  5  1  0
  5  6  1  0
  3  7  1  0
  7  8  1  0
  7  9  2  0
  8 10  1  0
 10 11  2  0
 11 12  1  0
 12 13  1  0
 13  8  2  0
  4 14  1  1
 14 15  1  0
 15 16  1  0
 16 17  1  0
 16 18  2  0
 17 23  2  0
 22 19  2  0
 19 20  1  0
 20 21  2  0
 21 17  1  0
 22 23  1  0
 23 24  1  0
 24 25  2  0
 25 26  1  0
 26 22  1  0
 11 27  1  0
 13 28  1  0
 28 29  2  0
 29 30  1  0
 30 31  2  0
 31 32  1  0
 32 33  2  0
 33 28  1  0
 31 34  1  0
M  END
> <chembl_id>
CHEMBL1272307

$$$$

  SciTegic02271515152D

 30 33  0  0  0  0            999 V2000
    3.4373   -5.4744    0.0000 C   0  0
    3.4361   -6.3010    0.0000 C   0  0
    4.1503   -6.7136    0.0000 C   0  0
    4.8661   -6.3005    0.0000 C   0  0
    4.8632   -5.4708    0.0000 C   0  0
    4.1485   -5.0620    0.0000 C   0  0
    5.5756   -5.0559    0.0000 O   0  0
    2.7233   -5.0624    0.0000 O   0  0
    2.7231   -4.2381    0.0000 C   0  0
    2.7219   -6.7126    0.0000 O   0  0
    2.0084   -6.2999    0.0000 C   0  0
    5.5725   -4.2316    0.0000 C   0  0
    6.2848   -3.8168    0.0000 C   0  0  2  0  0  0
    7.1060   -3.8099    0.0000 C   0  0  1  0  0  0
    6.6912   -3.0977    0.0000 C   0  0
    5.6950   -3.2264    0.0000 C   0  0
    7.8224   -4.2177    0.0000 C   0  0
    7.8274   -5.0420    0.0000 N   0  0
    8.5437   -5.4498    0.0000 C   0  0
    8.5448   -6.2748    0.0000 C   0  0
    9.2603   -6.6825    0.0000 C   0  0
    9.9726   -6.2660    0.0000 C   0  0
    9.9650   -5.4375    0.0000 C   0  0
    9.2489   -5.0335    0.0000 C   0  0
    5.9146   -2.4201    0.0000 C   0  0
    5.3256   -1.8300    0.0000 C   0  0
    4.5185   -2.0453    0.0000 C   0  0
    4.3035   -2.8560    0.0000 C   0  0
    4.8939   -3.4426    0.0000 C   0  0
    8.5337   -3.8012    0.0000 O   0  0
  1  2  2  0
  2  3  1  0
  3  4  2  0
  4  5  1  0
  5  6  2  0
  6  1  1  0
  5  7  1  0
  1  8  1  0
  8  9  1  0
  2 10  1  0
 10 11  1  0
  7 12  1  0
 13 12  1  1
 14 13  1  0
 15 14  1  0
 13 15  1  0
 13 16  1  0
 14 17  1  1
 17 18  1  0
 18 19  1  0
 19 20  2  0
 20 21  1  0
 21 22  2  0
 22 23  1  0
 23 24  2  0
 24 19  1  0
 16 25  2  0
 25 26  1  0
 26 27  2  0
 27 28  1  0
 28 29  2  0
 29 16  1  0
 17 30  2  0
M  END
> <chembl_id>
CHEMBL3343242

$$$$

  SciTegic02271515152D

 28 31  0  0  0  0            999 V2000
    5.6207   -2.9583    0.0000 C   0  0  2  0  0  0
    6.4457   -2.9583    0.0000 C   0  0  1  0  0  0
    6.0332   -2.2421    0.0000 C   0  0
    4.9065   -3.3712    0.0000 C   0  0
    7.1600   -3.3712    0.0000 C   0  0
    7.1596   -4.1962    0.0000 N   0  0
    7.8746   -2.9591    0.0000 O   0  0
    7.8738   -4.6090    0.0000 C   0  0
    4.1918   -2.9591    0.0000 O   0  0
    3.4776   -3.3719    0.0000 C   0  0
    5.0369   -2.3753    0.0000 C   0  0
    5.2522   -1.5783    0.0000 C   0  0
    4.6692   -0.9957    0.0000 C   0  0
    3.8715   -1.2096    0.0000 C   0  0
    3.6601   -2.0115    0.0000 C   0  0
    4.2446   -2.5907    0.0000 C   0  0
    2.7656   -2.9551    0.0000 C   0  0
    2.0519   -3.3673    0.0000 C   0  0
    2.0519   -4.1931    0.0000 C   0  0
    2.7716   -4.6051    0.0000 C   0  0
    3.4824   -4.1906    0.0000 C   0  0
    7.8717   -5.4344    0.0000 C   0  0
    8.5850   -5.8472    0.0000 C   0  0
    9.3007   -5.4350    0.0000 C   0  0
    9.2985   -4.6057    0.0000 C   0  0
    8.5845   -4.1967    0.0000 N   0  0
    1.3374   -2.9548    0.0000 O   0  0
    1.3373   -2.1298    0.0000 C   0  0
  2  1  1  0
  3  2  1  0
  1  3  1  0
  1  4  1  1
  2  5  1  1
  5  6  1  0
  5  7  2  0
  6  8  1  0
  4  9  1  0
  9 10  1  0
  1 11  1  0
 11 12  2  0
 12 13  1  0
 13 14  2  0
 14 15  1  0
 15 16  2  0
 16 11  1  0
 10 17  2  0
 17 18  1  0
 18 19  2  0
 19 20  1  0
 20 21  2  0
 21 10  1  0
  8 22  2  0
 22 23  1  0
 23 24  2  0
 24 25  1  0
 25 26  2  0
 26  8  1  0
 18 27  1  0
 27 28  1  0
M  END
> <chembl_id>
CHEMBL3343249

$$$$

  SciTegic02271515152D

 30 33  0  0  0  0            999 V2000
    6.8832  -20.8913    0.0000 C   0  0  2  0  0  0
    7.7082  -20.8913    0.0000 C   0  0  1  0  0  0
    7.2957  -20.1752    0.0000 C   0  0
    6.1690  -21.3042    0.0000 C   0  0
    8.4225  -21.3042    0.0000 C   0  0
    8.4220  -22.1292    0.0000 N   0  0
    9.1371  -20.8921    0.0000 O   0  0
    9.1362  -22.5420    0.0000 C   0  0
    5.4543  -20.8921    0.0000 O   0  0
    4.7401  -21.3049    0.0000 C   0  0
    6.2994  -20.3084    0.0000 C   0  0
    6.5147  -19.5114    0.0000 C   0  0
    5.9317  -18.9288    0.0000 C   0  0
    5.1340  -19.1427    0.0000 C   0  0
    4.9226  -19.9446    0.0000 C   0  0
    5.5071  -20.5238    0.0000 C   0  0
    4.0282  -20.8882    0.0000 C   0  0
    3.3143  -21.3003    0.0000 C   0  0
    3.3143  -22.1262    0.0000 C   0  0
    4.0340  -22.5382    0.0000 C   0  0
    4.7448  -22.1236    0.0000 C   0  0
    9.1341  -23.3674    0.0000 C   0  0
    9.8476  -23.7801    0.0000 C   0  0
   10.5632  -23.3680    0.0000 C   0  0
   10.5610  -22.5387    0.0000 C   0  0
    9.8471  -22.1297    0.0000 N   0  0
    2.5999  -20.8879    0.0000 O   0  0
    2.5999  -20.0629    0.0000 C   0  0
    2.6007  -22.5400    0.0000 O   0  0
    1.8854  -22.1288    0.0000 C   0  0
  2  1  1  0
  3  2  1  0
  1  3  1  0
  1  4  1  1
  2  5  1  1
  5  6  1  0
  5  7  2  0
  6  8  1  0
  4  9  1  0
  9 10  1  0
  1 11  1  0
 11 12  2  0
 12 13  1  0
 13 14  2  0
 14 15  1  0
 15 16  2  0
 16 11  1  0
 10 17  2  0
 17 18  1  0
 18 19  2  0
 19 20  1  0
 20 21  2  0
 21 10  1  0
  8 22  2  0
 22 23  1  0
 23 24  2  0
 24 25  1  0
 25 26  2  0
 26  8  1  0
 18 27  1  0
 27 28  1  0
 19 29  1  0
 29 30  1  0
M  END
> <chembl_id>
CHEMBL3343246

$$$$

  SciTegic02271515152D

 33 37  0  0  0  0            999 V2000
    6.3217   -2.8530    0.0000 C   0  0  2  0  0  0
    7.1466   -2.8660    0.0000 C   0  0  1  0  0  0
    6.7454   -2.1434    0.0000 C   0  0
    5.6011   -3.2547    0.0000 C   0  0
    7.8543   -3.2900    0.0000 C   0  0
    7.8409   -4.1149    0.0000 C   0  0
    8.5753   -2.8892    0.0000 O   0  0
    4.8929   -2.8314    0.0000 O   0  0
    4.1723   -3.2330    0.0000 C   0  0
    3.4670   -2.8052    0.0000 C   0  0
    2.7468   -3.2061    0.0000 C   0  0
    2.7339   -4.0319    0.0000 C   0  0
    3.4471   -4.4551    0.0000 C   0  0
    4.1643   -4.0517    0.0000 C   0  0
    2.0390   -2.7825    0.0000 O   0  0
    2.0519   -1.9576    0.0000 C   0  0
    2.0138   -4.4345    0.0000 O   0  0
    1.3051   -4.0121    0.0000 C   0  0
    7.1679   -4.5851    0.0000 N   0  0
    8.5025   -4.6067    0.0000 N   0  0
    8.2351   -5.3871    0.0000 C   0  0
    7.4108   -5.3734    0.0000 C   0  0
    6.9887   -6.0792    0.0000 C   0  0
    7.3896   -6.7993    0.0000 C   0  0
    8.2170   -6.8090    0.0000 C   0  0
    8.6354   -6.1025    0.0000 C   0  0
    8.6213   -7.5282    0.0000 F   0  0
    5.9041   -2.1332    0.0000 C   0  0
    6.3215   -1.4121    0.0000 C   0  0
    5.9046   -0.6928    0.0000 C   0  0
    5.0715   -0.6942    0.0000 C   0  0
    4.6572   -1.4208    0.0000 C   0  0
    5.0765   -2.1372    0.0000 C   0  0
  2  1  1  0
  3  2  1  0
  1  3  1  0
  1  4  1  1
  2  5  1  1
  5  6  1  0
  5  7  2  0
  4  8  1  0
  8  9  1  0
  9 10  2  0
 10 11  1  0
 11 12  2  0
 12 13  1  0
 13 14  2  0
 14  9  1  0
 11 15  1  0
 15 16  1  0
 12 17  1  0
 17 18  1  0
  6 19  1  0
 19 22  1  0
 21 20  1  0
 20  6  2  0
 21 22  2  0
 22 23  1  0
 23 24  2  0
 24 25  1  0
 25 26  2  0
 26 21  1  0
 25 27  1  0
  1 28  1  0
 28 29  2  0
 29 30  1  0
 30 31  2  0
 31 32  1  0
 32 33  2  0
 33 28  1  0
M  END
> <chembl_id>
CHEMBL3343257

$$$$

  SciTegic02271515152D

 32 35  0  0  0  0            999 V2000
   18.2033  -13.5914    0.0000 C   0  0
   19.0278  -13.6043    0.0000 C   0  0
   18.6268  -12.8821    0.0000 C   0  0
   17.4831  -13.9928    0.0000 C   0  0
   19.7351  -14.0281    0.0000 C   0  0
   19.7217  -14.8525    0.0000 N   0  0
   20.4557  -13.6274    0.0000 O   0  0
   16.7754  -13.5697    0.0000 O   0  0
   16.0551  -13.9711    0.0000 C   0  0
   15.3502  -13.5435    0.0000 C   0  0
   14.6305  -13.9442    0.0000 C   0  0
   14.6175  -14.7695    0.0000 C   0  0
   15.3302  -15.1925    0.0000 C   0  0
   16.0471  -14.7893    0.0000 C   0  0
   13.9229  -13.5208    0.0000 O   0  0
   13.9358  -12.6963    0.0000 C   0  0
   13.8977  -15.1719    0.0000 O   0  0
   13.1894  -14.7498    0.0000 C   0  0
   20.4290  -15.2762    0.0000 C   0  0
   20.4141  -16.1003    0.0000 C   0  0
   21.1206  -16.5239    0.0000 C   0  0
   21.8422  -16.1233    0.0000 C   0  0
   21.8530  -15.2945    0.0000 C   0  0
   21.1458  -14.8746    0.0000 N   0  0
   22.5506  -16.5448    0.0000 C   0  0
   23.2585  -16.9677    0.0000 N   0  0
   17.7859  -12.8720    0.0000 C   0  0
   18.2032  -12.1512    0.0000 C   0  0
   17.7864  -11.4323    0.0000 C   0  0
   16.9538  -11.4337    0.0000 C   0  0
   16.5397  -12.1600    0.0000 C   0  0
   16.9588  -12.8758    0.0000 C   0  0
  2  1  1  0
  3  2  1  0
  1  3  1  0
  1  4  1  0
  2  5  1  0
  5  6  1  0
  5  7  2  0
  4  8  1  0
  8  9  1  0
  9 10  2  0
 10 11  1  0
 11 12  2  0
 12 13  1  0
 13 14  2  0
 14  9  1  0
 11 15  1  0
 15 16  1  0
 12 17  1  0
 17 18  1  0
  6 19  1  0
 19 20  2  0
 20 21  1  0
 21 22  2  0
 22 23  1  0
 23 24  2  0
 24 19  1  0
 25 26  3  0
 22 25  1  0
  1 27  1  0
 27 28  2  0
 28 29  1  0
 29 30  2  0
 30 31  1  0
 31 32  2  0
 32 27  1  0
M  END
> <chembl_id>
CHEMBL3343260

$$$$

  SciTegic02271515152D

 30 33  0  0  0  0            999 V2000
    5.8957  -28.9245    0.0000 C   0  0  2  0  0  0
    6.7207  -28.9245    0.0000 C   0  0  1  0  0  0
    6.3082  -28.2084    0.0000 C   0  0
    5.1815  -29.3374    0.0000 C   0  0
    7.4350  -29.3374    0.0000 C   0  0
    7.4346  -30.1624    0.0000 N   0  0
    8.1496  -28.9254    0.0000 O   0  0
    8.1488  -30.5752    0.0000 C   0  0
    4.4668  -28.9254    0.0000 O   0  0
    3.7526  -29.3382    0.0000 C   0  0
    5.3119  -28.3416    0.0000 C   0  0
    5.5272  -27.5446    0.0000 C   0  0
    4.9442  -26.9620    0.0000 C   0  0
    4.1465  -27.1759    0.0000 C   0  0
    3.9351  -27.9778    0.0000 C   0  0
    4.5196  -28.5569    0.0000 C   0  0
    3.0406  -28.9214    0.0000 C   0  0
    2.3269  -29.3335    0.0000 C   0  0
    2.3269  -30.1594    0.0000 C   0  0
    3.0466  -30.5714    0.0000 C   0  0
    3.7574  -30.1568    0.0000 C   0  0
    8.1467  -31.4006    0.0000 C   0  0
    8.8600  -31.8133    0.0000 C   0  0
    9.5757  -31.4012    0.0000 C   0  0
    9.5735  -30.5719    0.0000 C   0  0
    8.8595  -30.1629    0.0000 N   0  0
    5.1575  -26.1651    0.0000 O   0  0
    5.9543  -25.9512    0.0000 C   0  0
    3.5620  -26.5938    0.0000 O   0  0
    3.7738  -25.7965    0.0000 C   0  0
  2  1  1  0
  3  2  1  0
  1  3  1  0
  1  4  1  1
  2  5  1  1
  5  6  1  0
  5  7  2  0
  6  8  1  0
  4  9  1  0
  9 10  1  0
  1 11  1  0
 11 12  2  0
 12 13  1  0
 13 14  2  0
 14 15  1  0
 15 16  2  0
 16 11  1  0
 10 17  2  0
 17 18  1  0
 18 19  2  0
 19 20  1  0
 20 21  2  0
 21 10  1  0
  8 22  2  0
 22 23  1  0
 23 24  2  0
 24 25  1  0
 25 26  2  0
 26  8  1  0
 13 27  1  0
 27 28  1  0
 14 29  1  0
 29 30  1  0
M  END
> <chembl_id>
CHEMBL3343248

$$$$

  SciTegic02141411122D

 23 25  0  0  1  0            999 V2000
   -0.9583   -1.5167    0.0000 C   0  0
   -1.6708   -1.3042    0.0000 N   0  0
   -0.9583   -0.3792    0.0000 N   0  0
   -0.5708   -0.9750    0.0000 C   0  0
   -1.6708   -0.5792    0.0000 C   0  0
   -0.9500   -2.2500    0.0000 C   0  0
   -0.3375   -2.5875    0.0000 C   0  0
   -2.2875   -1.6667    0.0000 C   0  0
   -2.2875   -0.2292    0.0000 C   0  0
    0.1292   -0.9750    0.0000 C   0  0
   -2.9083   -1.3042    0.0000 C   0  0
   -2.9083   -0.5792    0.0000 C   0  0
   -0.3375   -3.3000    0.0000 N   0  0
    0.2625   -2.2417    0.0000 O   0  0
    0.4917   -0.3542    0.0000 C   0  0
    0.4917   -1.6000    0.0000 C   0  0
    1.2125   -0.3542    0.0000 C   0  0
    1.2125   -1.6000    0.0000 C   0  0
    1.5667   -1.0000    0.0000 C   0  0
   -3.5125   -1.6542    0.0000 C   0  0
    0.2625   -3.6417    0.0000 C   0  0
   -0.9500   -3.6417    0.0000 C   0  0
    2.2792   -1.0000    0.0000 C   0  0
  2  1  1  0
  3  4  1  0
  4  1  2  0
  5  2  1  0
  6  1  1  0
  7  6  1  0
  8  2  1  0
  9  5  1  0
 10  4  1  0
 11  8  2  0
 12 11  1  0
 13  7  1  0
 14  7  2  0
 15 10  2  0
 16 10  1  0
 17 15  1  0
 18 16  2  0
 19 18  1  0
 20 11  1  0
 21 13  1  0
 22 13  1  0
 23 19  1  0
  3  5  2  0
  9 12  2  0
 17 19  2  0
M  END
> <chembl_id>
CHEMBL911

$$$$

  SciTegic02271515152D

 30 33  0  0  0  0            999 V2000
    6.1166  -19.7246    0.0000 C   0  0  2  0  0  0
    6.9415  -19.7246    0.0000 C   0  0  1  0  0  0
    6.5291  -19.0084    0.0000 C   0  0
    5.4023  -20.1375    0.0000 C   0  0
    7.6558  -20.1375    0.0000 C   0  0
    7.6553  -20.9625    0.0000 N   0  0
    8.3704  -19.7253    0.0000 O   0  0
    8.3695  -21.3752    0.0000 C   0  0
    4.6877  -19.7253    0.0000 O   0  0
    3.9734  -20.1382    0.0000 C   0  0
    5.5327  -19.1417    0.0000 C   0  0
    5.7480  -18.3446    0.0000 C   0  0
    5.1650  -17.7620    0.0000 C   0  0
    4.3673  -17.9759    0.0000 C   0  0
    4.1558  -18.7778    0.0000 C   0  0
    4.7405  -19.3569    0.0000 C   0  0
    3.2614  -19.7213    0.0000 C   0  0
    2.5477  -20.1335    0.0000 C   0  0
    2.5477  -20.9594    0.0000 C   0  0
    3.2674  -21.3714    0.0000 C   0  0
    3.9782  -20.9568    0.0000 C   0  0
    8.3674  -22.2005    0.0000 C   0  0
    9.0809  -22.6133    0.0000 C   0  0
    9.7965  -22.2011    0.0000 N   0  0
    9.7943  -21.3719    0.0000 C   0  0
    9.0802  -20.9629    0.0000 C   0  0
    1.8332  -19.7211    0.0000 O   0  0
    1.8332  -18.8961    0.0000 C   0  0
    1.8340  -21.3732    0.0000 O   0  0
    1.1188  -20.9620    0.0000 C   0  0
  2  1  1  0
  3  2  1  0
  1  3  1  0
  1  4  1  1
  2  5  1  1
  5  6  1  0
  5  7  2  0
  6  8  1  0
  4  9  1  0
  9 10  1  0
  1 11  1  0
 11 12  2  0
 12 13  1  0
 13 14  2  0
 14 15  1  0
 15 16  2  0
 16 11  1  0
 10 17  2  0
 17 18  1  0
 18 19  2  0
 19 20  1  0
 20 21  2  0
 21 10  1  0
  8 22  2  0
 22 23  1  0
 23 24  2  0
 24 25  1  0
 25 26  2  0
 26  8  1  0
 18 27  1  0
 27 28  1  0
 19 29  1  0
 29 30  1  0
M  END
> <chembl_id>
CHEMBL3343253

$$$$

  SciTegic01161211252D

 32 36  0  0  0  0            999 V2000
    9.4130  -21.2520    0.0000 C   0  0
   10.1273  -21.6653    0.0000 N   0  0
   11.2516  -23.1610    0.0000 C   0  0  1  0  0  0
   11.7738  -22.4865    0.0000 N   0  0
   11.5713  -21.7055    0.0000 C   0  0
   10.4194  -23.1570    0.0000 C   0  0
    9.9182  -22.5037    0.0000 C   0  0
   10.8452  -21.3417    0.0000 C   0  0
   12.5984  -22.5240    0.0000 C   0  0
   12.9781  -23.2569    0.0000 C   0  0
   13.0431  -21.8287    0.0000 O   0  0
   12.5314  -23.9482    0.0000 C   0  0
   12.9105  -24.6806    0.0000 C   0  0
   13.7359  -24.7186    0.0000 C   0  0
   14.1807  -24.0182    0.0000 C   0  0
   13.7992  -23.2888    0.0000 C   0  0
   14.2921  -22.6258    0.0000 N   0  0
   15.1174  -22.6385    0.0000 N   0  0
   15.3845  -21.8575    0.0000 C   0  0
   14.7243  -21.3621    0.0000 C   0  0
   14.0492  -21.8370    0.0000 N   0  0
   11.6133  -23.9029    0.0000 C   0  0
    9.3246  -20.4306    0.0000 O   0  0
    8.6561  -21.5863    0.0000 N   0  0
    8.1044  -20.9726    0.0000 C   0  0
    8.5175  -20.2598    0.0000 C   0  0
    8.1067  -19.5478    0.0000 C   0  0
    7.2831  -19.5473    0.0000 C   0  0
    6.8719  -20.2650    0.0000 C   0  0
    7.2850  -20.9740    0.0000 C   0  0
   12.4654  -25.3757    0.0000 C   0  0
    6.0465  -20.2679    0.0000 Cl  0  0
 15 16  2  0
 16 10  1  0
 17 18  1  0
  6  7  1  0
  4  9  1  0
  1  2  1  0
  9 10  1  0
 18 19  2  0
 19 20  1  0
 20 21  2  0
 21 17  1  0
 16 17  1  0
  3  4  1  0
  3 22  1  6
  1 23  1  0
  9 11  2  0
  4  5  1  0
 23 26  1  0
 25 24  1  0
 24  1  2  0
 10 12  2  0
  3  6  1  0
 25 26  2  0
 12 13  1  0
 26 27  1  0
  7  2  1  0
 27 28  2  0
 13 14  2  0
 28 29  1  0
  2  8  1  0
 29 30  2  0
 30 25  1  0
 14 15  1  0
 13 31  1  0
  8  5  1  0
 29 32  1  0
M  END
> <chembl_id>
CHEMBL1083659

$$$$
