
  CDK    9/16/09,9:59

 36 39  0  0  0  0  0  0  0  0999 V2000
   -1.6630    0.5208    0.0000 C   0  0  0  0  0  0  0  0  0  0  0  0
   -0.9510    0.9292    0.0000 N   0  0  0  0  0  0  0  0  0  0  0  0
   -0.9510    1.7542    0.0000 C   0  0  0  0  0  0  0  0  0  0  0  0
   -1.6630    2.1708    0.0000 C   0  0  0  0  0  0  0  0  0  0  0  0
   -2.3750    0.9292    0.0000 C   0  0  0  0  0  0  0  0  0  0  0  0
   -2.3724    1.7565    0.0000 C   0  0  0  0  0  0  0  0  0  0  0  0
   -3.0865    2.1706    0.0000 C   0  0  0  0  0  0  0  0  0  0  0  0
   -3.8036    1.7585    0.0000 C   0  0  0  0  0  0  0  0  0  0  0  0
   -3.8022    0.9280    0.0000 C   0  0  0  0  0  0  0  0  0  0  0  0
   -3.0875    0.5177    0.0000 C   0  0  0  0  0  0  0  0  0  0  0  0
   -4.5180    2.1711    0.0000 O   0  0  0  0  0  0  0  0  0  0  0  0
   -4.5179    2.9961    0.0000 C   0  0  0  0  0  0  0  0  0  0  0  0
   -4.5158    0.5141    0.0000 O   0  0  0  0  0  0  0  0  0  0  0  0
   -5.2311    0.9251    0.0000 C   0  0  0  0  0  0  0  0  0  0  0  0
   -1.6630   -0.3042    0.0000 C   0  0  0  0  0  0  0  0  0  0  0  0
   -2.3775   -0.7167    0.0000 C   0  0  0  0  0  0  0  0  0  0  0  0
   -3.0906   -0.2997    0.0000 C   0  0  0  0  0  0  0  0  0  0  0  0
   -3.8046   -0.7115    0.0000 C   0  0  0  0  0  0  0  0  0  0  0  0
   -3.8050   -1.5374    0.0000 C   0  0  0  0  0  0  0  0  0  0  0  0
   -3.0855   -1.9498    0.0000 C   0  0  0  0  0  0  0  0  0  0  0  0
   -2.3745   -1.5356    0.0000 C   0  0  0  0  0  0  0  0  0  0  0  0
   -4.5189   -0.2987    0.0000 O   0  0  0  0  0  0  0  0  0  0  0  0
   -5.2335   -0.7109    0.0000 C   0  0  0  0  0  0  0  0  0  0  0  0
   -4.5190   -1.9509    0.0000 O   0  0  0  0  0  0  0  0  0  0  0  0
   -5.2340   -1.5393    0.0000 C   0  0  0  0  0  0  0  0  0  0  0  0
   -0.2371    0.5156    0.0000 C   0  0  0  0  0  0  0  0  0  0  0  0
    0.4780    0.9271    0.0000 C   0  0  0  0  0  0  0  0  0  0  0  0
    1.1918    0.5136    0.0000 N   0  0  0  0  0  0  0  0  0  0  0  0
    0.4792    1.7521    0.0000 O   0  0  0  0  0  0  0  0  0  0  0  0
    1.1907   -0.3114    0.0000 C   0  0  0  0  0  0  0  0  0  0  0  0
    1.9045   -0.7250    0.0000 C   0  0  0  0  0  0  0  0  0  0  0  0
    1.9002   -1.5511    0.0000 C   0  0  0  0  0  0  0  0  0  0  0  0
    2.6132   -1.9645    0.0000 C   0  0  0  0  0  0  0  0  0  0  0  0
    3.3293   -1.5530    0.0000 C   0  0  0  0  0  0  0  0  0  0  0  0
    3.3278   -0.7237    0.0000 C   0  0  0  0  0  0  0  0  0  0  0  0
    2.6142   -0.3140    0.0000 C   0  0  0  0  0  0  0  0  0  0  0  0
  2  3  1  0  0  0  0 
 17 18  1  0  0  0  0 
  8  9  1  0  0  0  0 
 18 19  2  0  0  0  0 
  3  4  1  0  0  0  0 
 19 20  1  0  0  0  0 
  9 10  2  0  0  0  0 
 20 21  2  0  0  0  0 
 21 16  1  0  0  0  0 
 10  5  1  0  0  0  0 
 18 22  1  0  0  0  0 
 22 23  1  0  0  0  0 
  8 11  1  0  0  0  0 
 19 24  1  0  0  0  0 
  6  4  1  0  0  0  0 
 24 25  1  0  0  0  0 
 11 12  1  0  0  0  0 
  2 26  1  0  0  0  0 
  5  6  2  0  0  0  0 
 26 27  1  0  0  0  0 
  9 13  1  0  0  0  0 
 27 28  1  0  0  0  0 
  5  1  1  0  0  0  0 
 27 29  2  0  0  0  0 
 13 14  1  0  0  0  0 
 28 30  1  0  0  0  0 
  6  7  1  0  0  0  0 
 30 31  1  0  0  0  0 
  1 15  1  0  0  0  0 
 31 32  2  0  0  0  0 
  1  2  1  0  0  0  0 
 32 33  1  0  0  0  0 
 15 16  1  0  0  0  0 
 33 34  2  0  0  0  0 
  7  8  2  0  0  0  0 
 34 35  1  0  0  0  0 
 16 17  2  0  0  0  0 
 35 36  2  0  0  0  0 
 36 31  1  0  0  0  0 
M  END
> <chembl_id>
CHEMBL490489

$$$$

  SciTegic12231509382D

 37 40  0  0  0  0            999 V2000
   13.7099   -9.2219    0.0000 N   0  0
   13.7099  -10.0469    0.0000 C   0  0
   14.4220  -10.4553    0.0000 C   0  0
   14.4220   -8.8051    0.0000 C   0  0  2  0  0  0
   15.1340   -9.2219    0.0000 C   0  0
   15.1324  -10.0451    0.0000 C   0  0
   15.8435  -10.4563    0.0000 C   0  0
   16.5566  -10.0455    0.0000 C   0  0
   16.5542   -9.2191    0.0000 C   0  0
   15.8426   -8.8116    0.0000 C   0  0
   14.4220   -7.9800    0.0000 C   0  0
   15.1365   -7.5675    0.0000 C   0  0
   15.1365   -6.7425    0.0000 C   0  0
   15.8577   -6.3309    0.0000 C   0  0
   15.8581   -5.5066    0.0000 C   0  0
   15.1430   -5.0995    0.0000 C   0  0
   14.4260   -5.5103    0.0000 C   0  0
   14.4293   -6.3331    0.0000 C   0  0
   12.9941   -8.8114    0.0000 C   0  0  2  0  0  0
   12.9917   -7.9863    0.0000 C   0  0
   12.2808   -9.2260    0.0000 C   0  0
   11.5650   -8.8156    0.0000 N   0  0
   12.2832  -10.0511    0.0000 O   0  0
   10.8517   -9.2303    0.0000 C   0  0
   13.7048   -7.5733    0.0000 C   0  0
   13.7028   -6.7490    0.0000 C   0  0
   12.9865   -6.3378    0.0000 C   0  0
   12.2708   -6.7568    0.0000 C   0  0
   12.2764   -7.5798    0.0000 C   0  0
   17.2674   -8.8042    0.0000 O   0  0
   17.9833   -9.2144    0.0000 C   0  0
   17.2716  -10.4573    0.0000 O   0  0
   17.2724  -11.2823    0.0000 C   0  0
   15.1419   -4.2744    0.0000 C   0  0
   15.8558   -3.8610    0.0000 F   0  0
   14.4267   -3.8629    0.0000 F   0  0
   15.1350   -3.4462    0.0000 F   0  0
  1  2  1  0
  1  4  1  0
  2  3  1  0
  3  6  1  0
  5  4  1  0
  5  6  2  0
  6  7  1  0
  7  8  2  0
  8  9  1  0
  9 10  2  0
 10  5  1  0
  4 11  1  1
 11 12  1  0
 12 13  1  0
 13 14  2  0
 14 15  1  0
 15 16  2  0
 16 17  1  0
 17 18  2  0
 18 13  1  0
  1 19  1  0
 19 20  1  1
 19 21  1  0
 21 22  1  0
 21 23  2  0
 22 24  1  0
 20 25  2  0
 25 26  1  0
 26 27  2  0
 27 28  1  0
 28 29  2  0
 29 20  1  0
  9 30  1  0
 30 31  1  0
  8 32  1  0
 32 33  1  0
 16 34  1  0
 34 35  1  0
 34 36  1  0
 34 37  1  0
M  END
> <chembl_id>
CHEMBL455136

$$$$

  CDK    9/16/09,9:59

 38 43  0  0  0  0  0  0  0  0999 V2000
   17.2204  -23.7750    0.0000 C   0  0  0  0  0  0  0  0  0  0  0  0
   17.9324  -23.3667    0.0000 N   0  0  0  0  0  0  0  0  0  0  0  0
   17.9324  -22.5417    0.0000 C   0  0  0  0  0  0  0  0  0  0  0  0
   17.2204  -22.1250    0.0000 C   0  0  0  0  0  0  0  0  0  0  0  0
   16.5083  -23.3667    0.0000 C   0  0  0  0  0  0  0  0  0  0  0  0
   16.5109  -22.5393    0.0000 C   0  0  0  0  0  0  0  0  0  0  0  0
   15.7969  -22.1252    0.0000 C   0  0  0  0  0  0  0  0  0  0  0  0
   15.0797  -22.5373    0.0000 C   0  0  0  0  0  0  0  0  0  0  0  0
   15.0812  -23.3678    0.0000 C   0  0  0  0  0  0  0  0  0  0  0  0
   15.7958  -23.7782    0.0000 C   0  0  0  0  0  0  0  0  0  0  0  0
   14.3653  -22.1247    0.0000 O   0  0  0  0  0  0  0  0  0  0  0  0
   14.3655  -21.2997    0.0000 C   0  0  0  0  0  0  0  0  0  0  0  0
   14.3675  -23.7818    0.0000 O   0  0  0  0  0  0  0  0  0  0  0  0
   13.6522  -23.3707    0.0000 C   0  0  0  0  0  0  0  0  0  0  0  0
   17.2204  -24.6000    0.0000 C   0  0  0  0  0  0  0  0  0  0  0  0
   16.5059  -25.0125    0.0000 C   0  0  0  0  0  0  0  0  0  0  0  0
   15.7927  -24.5956    0.0000 C   0  0  0  0  0  0  0  0  0  0  0  0
   15.0787  -25.0074    0.0000 C   0  0  0  0  0  0  0  0  0  0  0  0
   16.5088  -25.8314    0.0000 C   0  0  0  0  0  0  0  0  0  0  0  0
   18.6462  -23.7802    0.0000 C   0  0  0  0  0  0  0  0  0  0  0  0
   19.3613  -23.3687    0.0000 C   0  0  0  0  0  0  0  0  0  0  0  0
   20.0752  -23.7823    0.0000 N   0  0  0  0  0  0  0  0  0  0  0  0
   19.3625  -22.5437    0.0000 O   0  0  0  0  0  0  0  0  0  0  0  0
   20.7903  -23.3708    0.0000 C   0  0  0  0  0  0  0  0  0  0  0  0
   18.6450  -24.6052    0.0000 C   0  0  0  0  0  0  0  0  0  0  0  0
   17.9289  -25.0150    0.0000 C   0  0  0  0  0  0  0  0  0  0  0  0
   17.9274  -25.8392    0.0000 C   0  0  0  0  0  0  0  0  0  0  0  0
   18.6418  -26.2536    0.0000 C   0  0  0  0  0  0  0  0  0  0  0  0
   19.3593  -25.8377    0.0000 C   0  0  0  0  0  0  0  0  0  0  0  0
   19.3573  -25.0148    0.0000 C   0  0  0  0  0  0  0  0  0  0  0  0
   21.6122  -23.3674    0.0000 C   0  0  0  0  0  0  0  0  0  0  0  0
   21.2008  -22.6524    0.0000 C   0  0  0  0  0  0  0  0  0  0  0  0
   15.7978  -26.2456    0.0000 C   0  0  0  0  0  0  0  0  0  0  0  0
   15.0807  -25.8327    0.0000 C   0  0  0  0  0  0  0  0  0  0  0  0
   14.3667  -26.2471    0.0000 C   0  0  0  0  0  0  0  0  0  0  0  0
   14.3685  -27.0744    0.0000 C   0  0  0  0  0  0  0  0  0  0  0  0
   15.0903  -27.4854    0.0000 C   0  0  0  0  0  0  0  0  0  0  0  0
   15.8014  -27.0686    0.0000 C   0  0  0  0  0  0  0  0  0  0  0  0
 18 34  2  0  0  0  0 
  8  9  1  0  0  0  0 
 33 19  2  0  0  0  0 
 19 16  1  0  0  0  0 
  3  4  1  0  0  0  0 
  2 20  1  0  0  0  0 
  9 10  2  0  0  0  0 
 20 21  1  0  0  0  0 
 10  5  1  0  0  0  0 
 21 22  1  0  0  0  0 
 21 23  2  0  0  0  0 
  8 11  1  0  0  0  0 
 22 24  1  0  0  0  0 
  6  4  1  0  0  0  0 
 20 25  1  0  0  0  0 
 11 12  1  0  0  0  0 
 25 26  2  0  0  0  0 
  5  6  2  0  0  0  0 
 26 27  1  0  0  0  0 
  9 13  1  0  0  0  0 
 27 28  2  0  0  0  0 
  5  1  1  0  0  0  0 
 28 29  1  0  0  0  0 
 13 14  1  0  0  0  0 
 29 30  2  0  0  0  0 
 30 25  1  0  0  0  0 
 31 24  1  0  0  0  0 
 32 31  1  0  0  0  0 
 24 32  1  0  0  0  0 
  6  7  1  0  0  0  0 
  1 15  1  0  0  0  0 
  1  2  1  0  0  0  0 
 15 16  1  0  0  0  0 
 33 34  1  0  0  0  0 
  7  8  2  0  0  0  0 
 34 35  1  0  0  0  0 
 16 17  2  0  0  0  0 
 35 36  2  0  0  0  0 
  2  3  1  0  0  0  0 
 36 37  1  0  0  0  0 
 17 18  1  0  0  0  0 
 37 38  2  0  0  0  0 
 38 33  1  0  0  0  0 
M  END
> <chembl_id>
CHEMBL490082

$$$$

  SciTegic12151613582D

 38 41  0  0  0  0            999 V2000
   -2.6111    0.7486    0.0000 C   0  0
   -2.6111   -0.7486    0.0000 C   0  0
   -1.2964   -1.4973    0.0000 C   0  0
   -1.2964    1.4973    0.0000 C   0  0
    0.0000    0.7486    0.0000 C   0  0
    0.0000   -0.7486    0.0000 C   0  0
    1.2964   -1.4973    0.0000 C   0  0
    2.5929   -0.7486    0.0000 N   0  0
    2.5929    0.7486    0.0000 C   0  0
    1.2964    1.4973    0.0000 C   0  0
    1.2995   -2.9981    0.0000 C   0  0
    2.6003   -3.7467    0.0000 C   0  0
    3.8942   -1.4964    0.0000 C   0  0
    5.1929   -0.7441    0.0000 C   0  0
    6.4942   -1.4919    0.0000 N   0  0
    5.1908    0.4559    0.0000 O   0  0
    7.7928   -0.7396    0.0000 C   0  0
   -3.9091    1.5019    0.0000 O   0  0
   -3.9072    2.7019    0.0000 C   0  0
   -3.9091   -1.5019    0.0000 O   0  0
   -3.9067   -3.0027    0.0000 C   0  0
    2.6056   -5.2467    0.0000 C   0  0
    3.9072   -5.9922    0.0000 C   0  0
    5.2037   -5.2377    0.0000 C   0  0
    5.1985   -3.7377    0.0000 C   0  0
    3.8969   -2.9922    0.0000 C   0  0
    3.9093   -7.4931    0.0000 O   0  0
    2.8713   -8.0952    0.0000 C   0  0
    6.5076   -5.9810    0.0000 O   0  0
    7.5438   -5.3759    0.0000 C   0  0
   -4.9447   -3.6050    0.0000 C   0  0
   -2.8664   -3.6008    0.0000 C   0  0
    9.0941   -1.4873    0.0000 C   0  0
   10.3932   -0.7374    0.0000 C   0  0
   11.6923   -1.4873    0.0000 C   0  0
   11.6923   -2.9873    0.0000 C   0  0
   10.3933   -3.7374    0.0000 C   0  0
    9.0942   -2.9874    0.0000 C   0  0
  1  2  2  0
  2  3  1  0
  3  6  2  0
  5  4  2  0
  4  1  1  0
  5  6  1  0
  5 10  1  0
  6  7  1  0
  7  8  1  0
  8  9  1  0
  9 10  1  0
  7 11  1  0
 11 12  1  0
  8 13  1  0
 13 14  1  0
 14 15  1  0
 14 16  2  0
 15 17  1  0
  1 18  1  0
 18 19  1  0
  2 20  1  0
 20 21  1  0
 12 22  2  0
 22 23  1  0
 23 24  2  0
 24 25  1  0
 25 26  2  0
 26 12  1  0
 23 27  1  0
 27 28  1  0
 24 29  1  0
 29 30  1  0
 21 31  1  0
 21 32  1  0
 17 33  1  0
 33 34  2  0
 34 35  1  0
 35 36  2  0
 36 37  1  0
 37 38  2  0
 38 33  1  0
M  END
> <chembl_id>
CHEMBL3771066

$$$$

  SciTegic04191615122D

 27 29  0  0  0  0            999 V2000
    2.5984   -2.7004    0.0000 O   0  0
    2.5988   -1.5004    0.0000 S   0  0
    1.5595   -2.1002    0.0000 O   0  0
    1.2990   -0.7500    0.0000 C   0  0
    3.8990   -0.7508    0.0000 N   0  0
    5.2499   -1.3728    0.0000 C   0  0  1  0  0  0
    6.2543   -0.2587    0.0000 C   0  0
    5.5052    1.0408    0.0000 C   0  0
    4.0377    0.7299    0.0000 C   0  0
    1.2990    0.7500    0.0000 C   0  0
    0.0000    1.5000    0.0000 C   0  0
   -1.2990    0.7500    0.0000 C   0  0
   -1.2990   -0.7500    0.0000 C   0  0
    0.0000   -1.5000    0.0000 C   0  0
   -2.6003    1.4977    0.0000 O   0  0
   -3.6387    0.8962    0.0000 C   0  0
    5.5462   -2.8414    0.0000 C   0  0
    6.6836   -3.2237    0.0000 O   0  0
    4.4210   -3.8346    0.0000 N   0  0
    4.7177   -5.3058    0.0000 C   0  0
    3.5946   -6.3002    0.0000 C   0  0
    3.8941   -7.7700    0.0000 C   0  0
    5.3167   -8.2455    0.0000 C   0  0
    6.4399   -7.2512    0.0000 C   0  0
    6.1404   -5.7814    0.0000 C   0  0
    7.5780   -7.6316    0.0000 C   0  0
    2.9956   -8.5654    0.0000 C   0  0
  2  1  2  0
  3  2  2  0
  4  2  1  0
  2  5  1  0
  5  6  1  0
  6  7  1  0
  7  8  1  0
  8  9  1  0
  9  5  1  0
  4 10  2  0
 10 11  1  0
 11 12  2  0
 12 13  1  0
 13 14  2  0
 14  4  1  0
 12 15  1  0
 15 16  1  0
  6 17  1  1
 17 18  2  0
 17 19  1  0
 19 20  1  0
 20 21  2  0
 21 22  1  0
 22 23  2  0
 23 24  1  0
 24 25  2  0
 25 20  1  0
 24 26  1  0
 22 27  1  0
M  END
> <chembl_id>
CHEMBL3597952

$$$$

  SciTegic09081514172D

 30 33  0  0  0  0            999 V2000
    1.2990   -0.7500    0.0000 C   0  0
    1.2990    0.7500    0.0000 C   0  0
    0.0000    1.5000    0.0000 C   0  0
   -1.2990    0.7500    0.0000 C   0  0
   -1.2990   -0.7500    0.0000 C   0  0
    0.0000   -1.5000    0.0000 C   0  0
    0.0000    3.0008    0.0000 N   0  0
    0.0000   -2.7000    0.0000 C   0  0
   -2.6003    1.4977    0.0000 C   0  0
   -2.6024    2.6977    0.0000 O   0  0
   -3.8990    0.7455    0.0000 N   0  0
   -5.2007    1.4909    0.0000 C   0  0
   -6.4972    0.7364    0.0000 C   0  0
   -6.4920   -0.7636    0.0000 C   0  0
   -5.1903   -1.5091    0.0000 C   0  0
   -3.8939   -0.7546    0.0000 C   0  0
   -7.8010    1.4796    0.0000 C   0  0
   -9.0971    0.7229    0.0000 O   0  0
  -10.4010    1.4661    0.0000 C   0  0
  -11.6975    0.7116    0.0000 C   0  0
  -12.9991    1.4571    0.0000 C   0  0
  -13.0044    2.9571    0.0000 C   0  0
  -11.7079    3.7116    0.0000 C   0  0
  -10.4063    2.9662    0.0000 C   0  0
  -14.0457    3.5535    0.0000 F   0  0
    1.2121    3.8625    0.0000 N   0  0
    0.7463    5.2884    0.0000 C   0  0
   -0.7537    5.2860    0.0000 C   0  0
   -1.2149    3.8587    0.0000 N   0  0
  -11.7121    4.9116    0.0000 C   0  0
  1  2  2  0
  2  3  1  0
  3  4  2  0
  4  5  1  0
  5  6  2  0
  6  1  1  0
  3  7  1  0
  6  8  1  0
  4  9  1  0
  9 10  2  0
  9 11  1  0
 11 12  1  0
 11 16  1  0
 12 13  1  0
 13 14  1  0
 14 15  1  0
 15 16  1  0
 13 17  1  0
 17 18  1  0
 18 19  1  0
 19 20  2  0
 20 21  1  0
 21 22  2  0
 22 23  1  0
 23 24  2  0
 24 19  1  0
 22 25  1  0
  7 26  1  0
 26 27  2  0
 27 28  1  0
 28 29  2  0
 29  7  1  0
 23 30  1  0
M  END
> <chembl_id>
CHEMBL3394825

$$$$

  CDK    9/16/09,9:59

 40 44  0  0  0  0  0  0  0  0999 V2000
   11.4287    0.7500    0.0000 C   0  0  0  0  0  0  0  0  0  0  0  0
   12.1407    1.1583    0.0000 N   0  0  0  0  0  0  0  0  0  0  0  0
   12.1407    1.9833    0.0000 C   0  0  0  0  0  0  0  0  0  0  0  0
   11.4287    2.4000    0.0000 C   0  0  0  0  0  0  0  0  0  0  0  0
   10.7167    1.1583    0.0000 C   0  0  0  0  0  0  0  0  0  0  0  0
   10.7193    1.9857    0.0000 C   0  0  0  0  0  0  0  0  0  0  0  0
   10.0052    2.3998    0.0000 C   0  0  0  0  0  0  0  0  0  0  0  0
    9.2881    1.9877    0.0000 C   0  0  0  0  0  0  0  0  0  0  0  0
    9.2895    1.1572    0.0000 C   0  0  0  0  0  0  0  0  0  0  0  0
   10.0041    0.7468    0.0000 C   0  0  0  0  0  0  0  0  0  0  0  0
    8.5737    2.4003    0.0000 O   0  0  0  0  0  0  0  0  0  0  0  0
    8.5738    3.2253    0.0000 C   0  0  0  0  0  0  0  0  0  0  0  0
    8.5759    0.7432    0.0000 O   0  0  0  0  0  0  0  0  0  0  0  0
    7.8606    1.1543    0.0000 C   0  0  0  0  0  0  0  0  0  0  0  0
   11.4287   -0.0750    0.0000 C   0  0  0  0  0  0  0  0  0  0  0  0
   10.7142   -0.4875    0.0000 C   0  0  0  0  0  0  0  0  0  0  0  0
   10.0011   -0.0706    0.0000 C   0  0  0  0  0  0  0  0  0  0  0  0
    9.2871   -0.4824    0.0000 C   0  0  0  0  0  0  0  0  0  0  0  0
    9.2866   -1.3083    0.0000 C   0  0  0  0  0  0  0  0  0  0  0  0
   10.0061   -1.7206    0.0000 C   0  0  0  0  0  0  0  0  0  0  0  0
   10.7172   -1.3064    0.0000 C   0  0  0  0  0  0  0  0  0  0  0  0
    8.5728   -0.0695    0.0000 O   0  0  0  0  0  0  0  0  0  0  0  0
    7.8581   -0.4817    0.0000 C   0  0  0  0  0  0  0  0  0  0  0  0
    8.5727   -1.7217    0.0000 O   0  0  0  0  0  0  0  0  0  0  0  0
    7.8577   -1.3102    0.0000 C   0  0  0  0  0  0  0  0  0  0  0  0
   12.8546    0.7448    0.0000 C   0  0  0  0  0  0  0  0  0  0  0  0
   13.5696    1.1563    0.0000 C   0  0  0  0  0  0  0  0  0  0  0  0
   14.2835    0.7427    0.0000 N   0  0  0  0  0  0  0  0  0  0  0  0
   13.5708    1.9813    0.0000 O   0  0  0  0  0  0  0  0  0  0  0  0
   14.9986    1.1542    0.0000 C   0  0  0  0  0  0  0  0  0  0  0  0
   15.8923    2.1504    0.0000 C   0  0  0  0  0  0  0  0  0  0  0  0
   15.0851    1.9799    0.0000 C   0  0  0  0  0  0  0  0  0  0  0  0
   16.3038    1.4352    0.0000 C   0  0  0  0  0  0  0  0  0  0  0  0
   15.7509    0.8281    0.0000 C   0  0  0  0  0  0  0  0  0  0  0  0
   16.0007    0.0478    0.0000 C   0  0  0  0  0  0  0  0  0  0  0  0
   16.8029   -0.1265    0.0000 C   0  0  0  0  0  0  0  0  0  0  0  0
   17.3549    0.4857    0.0000 C   0  0  0  0  0  0  0  0  0  0  0  0
   17.1022    1.2636    0.0000 C   0  0  0  0  0  0  0  0  0  0  0  0
   17.0558   -0.9117    0.0000 O   0  0  0  0  0  0  0  0  0  0  0  0
   16.5022   -1.5234    0.0000 C   0  0  0  0  0  0  0  0  0  0  0  0
  3  4  1  0  0  0  0 
 19 20  1  0  0  0  0 
  9 10  2  0  0  0  0 
 20 21  2  0  0  0  0 
 21 16  1  0  0  0  0 
 10  5  1  0  0  0  0 
 18 22  1  0  0  0  0 
 22 23  1  0  0  0  0 
  8 11  1  0  0  0  0 
 19 24  1  0  0  0  0 
  6  4  1  0  0  0  0 
 24 25  1  0  0  0  0 
 11 12  1  0  0  0  0 
  2 26  1  0  0  0  0 
  5  6  2  0  0  0  0 
 26 27  1  0  0  0  0 
  9 13  1  0  0  0  0 
 27 28  1  0  0  0  0 
  5  1  1  0  0  0  0 
 27 29  2  0  0  0  0 
 13 14  1  0  0  0  0 
 28 30  1  0  0  0  0 
 30 34  1  0  0  0  0 
  6  7  1  0  0  0  0 
  1 15  1  0  0  0  0 
 33 31  1  0  0  0  0 
 31 32  1  0  0  0  0 
 32 30  1  0  0  0  0 
  1  2  1  0  0  0  0 
 15 16  1  0  0  0  0 
 33 34  2  0  0  0  0 
  7  8  2  0  0  0  0 
 34 35  1  0  0  0  0 
 16 17  2  0  0  0  0 
 35 36  2  0  0  0  0 
  2  3  1  0  0  0  0 
 36 37  1  0  0  0  0 
 17 18  1  0  0  0  0 
 37 38  2  0  0  0  0 
 38 33  1  0  0  0  0 
  8  9  1  0  0  0  0 
 36 39  1  0  0  0  0 
 18 19  2  0  0  0  0 
 39 40  1  0  0  0  0 
M  END
> <chembl_id>
CHEMBL493427

$$$$

  SciTegic02271515092D

 33 36  0  0  0  0            999 V2000
   16.2401  -17.8539    0.0000 C   0  0
   16.2389  -18.6813    0.0000 C   0  0
   16.9537  -19.0941    0.0000 N   0  0
   17.6702  -18.6808    0.0000 C   0  0
   17.6674  -17.8503    0.0000 C   0  0
   16.9519  -17.4412    0.0000 C   0  0
   15.5255  -17.4416    0.0000 C   0  0
   18.3802  -17.4352    0.0000 C   0  0
   18.3852  -19.0922    0.0000 C   0  0
   18.3817  -19.9175    0.0000 C   0  0
   19.0960  -20.3288    0.0000 C   0  0
   19.8107  -19.9152    0.0000 C   0  0
   19.8068  -19.0860    0.0000 C   0  0
   19.0919  -18.6784    0.0000 N   0  0
   15.5287  -16.6157    0.0000 C   0  0
   14.8151  -16.2034    0.0000 N   0  0
   14.0997  -16.6162    0.0000 C   0  0
   14.1025  -17.4455    0.0000 C   0  0
   14.8168  -17.8539    0.0000 C   0  0
   13.3896  -17.8606    0.0000 Cl  0  0
   19.0963  -17.8449    0.0000 O   0  0
   18.3771  -16.6102    0.0000 N   0  0
   19.0900  -16.1949    0.0000 C   0  0
   19.8060  -16.6048    0.0000 C   0  0
   19.8043  -17.4301    0.0000 C   0  0
   20.5195  -17.8398    0.0000 C   0  0
   21.2334  -17.4246    0.0000 C   0  0
   21.2276  -16.5953    0.0000 C   0  0
   20.5118  -16.1894    0.0000 N   0  0
   21.9390  -16.1777    0.0000 O   0  0
   21.9499  -17.8334    0.0000 O   0  0
   22.6565  -16.5849    0.0000 C   0  0
   22.6623  -17.4173    0.0000 C   0  0
  1  2  2  0
  2  3  1  0
  3  4  2  0
  4  5  1  0
  5  6  2  0
  6  1  1  0
  1  7  1  0
  5  8  1  0
  4  9  1  0
  9 10  2  0
 10 11  1  0
 11 12  2  0
 12 13  1  0
 13 14  2  0
 14  9  1  0
  7 15  2  0
 15 16  1  0
 16 17  2  0
 17 18  1  0
 18 19  2  0
 19  7  1  0
 18 20  1  0
  8 21  2  0
  8 22  1  0
 22 23  1  0
 23 24  1  0
 24 25  2  0
 25 26  1  0
 26 27  2  0
 27 28  1  0
 28 29  2  0
 29 24  1  0
 28 30  1  0
 27 31  1  0
 30 32  1  0
 31 33  1  0
M  END
> <chembl_id>
CHEMBL3338866

$$$$

  SciTegic01161211232D

 31 35  0  0  0  0            999 V2000
   -4.7252   -1.8515    0.0000 C   0  0
   -4.7252   -2.6811    0.0000 C   0  0
   -4.0108   -3.0936    0.0000 C   0  0
   -4.0108   -1.4346    0.0000 C   0  0
   -3.2917   -1.8515    0.0000 C   0  0
   -3.2907   -2.6811    0.0000 C   0  0
   -2.5758   -3.0927    0.0000 N   0  0
   -1.8573   -2.6793    0.0000 C   0  0
   -1.8583   -1.8498    0.0000 N   0  0
   -2.5778   -1.4336    0.0000 C   0  0
   -1.1434   -3.0923    0.0000 N   0  0
   -0.0197   -4.5872    0.0000 C   0  0
    0.5023   -3.9131    0.0000 N   0  0
    0.2998   -3.1324    0.0000 C   0  0
   -0.8514   -4.5833    0.0000 C   0  0
   -1.3524   -3.9302    0.0000 C   0  0
   -0.4258   -2.7689    0.0000 C   0  0
    1.3264   -3.9506    0.0000 C   0  0
    1.7060   -4.6830    0.0000 C   0  0
    1.7709   -3.2556    0.0000 O   0  0
    1.2596   -5.3740    0.0000 C   0  0
    1.6385   -6.1061    0.0000 C   0  0
    2.4635   -6.1440    0.0000 C   0  0
    2.9081   -5.4440    0.0000 C   0  0
    2.5266   -4.7149    0.0000 C   0  0
    3.0193   -4.0523    0.0000 N   0  0
    3.8441   -4.0650    0.0000 N   0  0
    4.1111   -3.2845    0.0000 C   0  0
    3.4512   -2.7893    0.0000 C   0  0
    2.7765   -3.2639    0.0000 N   0  0
    1.1936   -6.8008    0.0000 C   0  0
 13 14  1  0
 12 15  1  0
 16 11  1  0
 11 17  1  0
 17 14  1  0
 15 16  1  0
  5 10  2  0
 13 18  1  0
  6  7  2  0
 18 19  1  0
  7  8  1  0
 18 20  2  0
  8  9  2  0
 19 21  2  0
  9 10  1  0
 21 22  1  0
  5  6  1  0
 22 23  2  0
  8 11  1  0
 23 24  1  0
 24 25  2  0
 25 19  1  0
 26 27  1  0
  1  2  1  0
  1  4  2  0
  2  3  2  0
  3  6  1  0
  5  4  1  0
 27 28  2  0
 28 29  1  0
 29 30  2  0
 30 26  1  0
 25 26  1  0
 12 13  1  0
 22 31  1  0
M  END
> <chembl_id>
CHEMBL469146

$$$$

  SciTegic05171617282D

 25 27  0  0  1  0            999 V2000
    2.5956   -2.7031    0.0000 C   0  0
    2.5973   -1.5031    0.0000 S   0  0
    1.2990   -0.7500    0.0000 C   0  0
    1.2990    0.7500    0.0000 C   0  0
    0.0000    1.5000    0.0000 C   0  0
   -1.2990    0.7500    0.0000 C   0  0
   -1.2990   -0.7500    0.0000 C   0  0
   -2.5972   -1.5031    0.0000 N   0  0
   -2.5951   -3.0039    0.0000 C   0  0
   -1.5548   -3.6021    0.0000 O   0  0
   -3.8933   -3.7570    0.0000 C   0  0  2  0  0  0
   -5.2447   -3.1360    0.0000 C   0  0
   -6.2484   -4.2507    0.0000 C   0  0
   -5.4984   -5.5497    0.0000 C   0  0
   -4.0312   -5.2379    0.0000 N   0  0
   -2.9101   -6.2317    0.0000 S   0  0
   -1.7719   -5.8518    0.0000 O   0  0
   -2.6699   -5.0560    0.0000 O   0  0
   -3.2099   -7.7023    0.0000 C   0  0
   -2.1925   -8.7871    0.0000 C   0  0
   -2.9317  -10.0924    0.0000 C   0  0
   -4.4014   -9.7928    0.0000 C   0  0
   -5.2865  -10.6032    0.0000 Br  0  0
   -4.5707   -8.3024    0.0000 S   0  0
    0.0000   -1.5000    0.0000 C   0  0
  1  2  1  0
  2  3  1  0
  3  4  2  0
  4  5  1  0
  5  6  2  0
  6  7  1  0
  7  8  1  0
  8  9  1  0
  9 10  2  0
 11  9  1  1
 11 12  1  0
 12 13  1  0
 13 14  1  0
 14 15  1  0
 11 15  1  0
 15 16  1  0
 16 17  2  0
 16 18  2  0
 16 19  1  0
 19 20  2  0
 20 21  1  0
 21 22  2  0
 22 23  1  0
 22 24  1  0
 19 24  1  0
  7 25  2  0
  3 25  1  0
M  END
> <chembl_id>
CHEMBL3667549

$$$$

  SciTegic12151613582D

 30 33  0  0  0  0            999 V2000
    1.2990   -0.7500    0.0000 C   0  0
    1.2990    0.7500    0.0000 C   0  0
    0.0000    1.5000    0.0000 C   0  0
   -1.2990    0.7500    0.0000 C   0  0
   -1.2990   -0.7500    0.0000 C   0  0
    0.0000   -1.5000    0.0000 C   0  0
   -2.3383   -1.3500    0.0000 F   0  0
    2.5972    1.5031    0.0000 O   0  0
    2.5951    3.0039    0.0000 C   0  0
    3.8933    3.7570    0.0000 C   0  0
    3.8912    5.2578    0.0000 C   0  0
    2.5895    6.0034    0.0000 C   0  0
    2.5843    7.5034    0.0000 C   0  0
    3.8807    8.2579    0.0000 C   0  0
    5.1824    7.5124    0.0000 C   0  0
    5.1876    6.0124    0.0000 N   0  0
    6.4915    5.2692    0.0000 C   0  0
    7.7875    6.0260    0.0000 C   0  0
    6.4978    4.0693    0.0000 O   0  0
    7.9150    7.5078    0.0000 N   0  0
    9.3801    7.8299    0.0000 C   0  0
   10.1391    6.5362    0.0000 S   0  0
    9.1432    5.4145    0.0000 C   0  0
    9.4567    3.9468    0.0000 C   0  0
    8.4293    2.8612    0.0000 C   0  0
    8.8582    1.4238    0.0000 C   0  0
   10.3174    1.0765    0.0000 C   0  0
   11.3478    2.1666    0.0000 C   0  0
   10.9189    3.6040    0.0000 C   0  0
    9.8605    8.9296    0.0000 C   0  0
  1  2  2  0
  2  3  1  0
  3  4  2  0
  4  5  1  0
  5  6  2  0
  6  1  1  0
  5  7  1  0
  2  8  1  0
  8  9  1  0
  9 10  1  0
 10 11  1  0
 11 12  1  0
 11 16  1  0
 12 13  1  0
 13 14  1  0
 14 15  1  0
 15 16  1  0
 16 17  1  0
 17 18  1  0
 17 19  2  0
 18 20  1  0
 20 21  2  0
 21 22  1  0
 22 23  1  0
 23 18  2  0
 24 25  2  0
 25 26  1  0
 26 27  2  0
 27 28  1  0
 28 29  2  0
 29 24  1  0
 23 24  1  0
 21 30  1  0
M  END
> <chembl_id>
CHEMBL3771050

$$$$

  SciTegic12151613582D

 31 34  0  0  0  0            999 V2000
    1.2990   -0.7500    0.0000 C   0  0  2  0  0  0
    1.2990    0.7500    0.0000 C   0  0
    0.0000    1.5000    0.0000 C   0  0
   -1.2990    0.7500    0.0000 C   0  0  2  0  0  0
   -1.2990   -0.7500    0.0000 N   0  0
    0.0000   -1.5000    0.0000 C   0  0
   -2.5972   -1.5031    0.0000 C   0  0
   -2.5951   -3.0039    0.0000 C   0  0
   -3.6375   -0.9049    0.0000 O   0  0
   -1.2935   -3.7495    0.0000 C   0  0
   -1.2883   -5.2495    0.0000 C   0  0
   -2.5847   -6.0040    0.0000 C   0  0
   -3.8863   -5.2585    0.0000 C   0  0
   -3.8915   -3.7585    0.0000 C   0  0
   -5.1938   -3.0127    0.0000 N   0  0
   -5.3392   -1.5325    0.0000 N   0  0
   -6.8080   -1.2281    0.0000 C   0  0
   -7.5514   -2.5309    0.0000 C   0  0
   -6.5421   -3.6405    0.0000 N   0  0
    2.6003   -1.4977    0.0000 C   0  0
    3.8990   -0.7455    0.0000 O   0  0
    5.2003   -1.4932    0.0000 C   0  0
    6.4994   -0.7432    0.0000 C   0  0
    7.7985   -1.4932    0.0000 C   0  0
    7.7985   -2.9932    0.0000 C   0  0
    6.4995   -3.7432    0.0000 C   0  0
    5.2004   -2.9933    0.0000 C   0  0
    8.8377   -0.8932    0.0000 C   0  0
    8.8378   -3.5932    0.0000 F   0  0
   -0.2470   -5.8459    0.0000 C   0  0
   -2.3383    1.3500    0.0000 C   0  0
  1  2  1  0
  1  6  1  0
  2  3  1  0
  3  4  1  0
  4  5  1  0
  5  6  1  0
  5  7  1  0
  7  8  1  0
  7  9  2  0
  8 10  2  0
 10 11  1  0
 11 12  2  0
 12 13  1  0
 13 14  2  0
 14  8  1  0
 15 16  1  0
 16 17  2  0
 17 18  1  0
 18 19  2  0
 19 15  1  0
 14 15  1  0
  1 20  1  1
 20 21  1  0
 21 22  1  0
 22 23  2  0
 23 24  1  0
 24 25  2  0
 25 26  1  0
 26 27  2  0
 27 22  1  0
 24 28  1  0
 25 29  1  0
 11 30  1  0
  4 31  1  6
M  END
> <chembl_id>
CHEMBL3770503

$$$$

  CDK    9/16/09,9:59

 34 37  0  0  0  0  0  0  0  0999 V2000
   18.4495   -7.1500    0.0000 C   0  0  0  0  0  0  0  0  0  0  0  0
   19.1615   -6.7417    0.0000 N   0  0  0  0  0  0  0  0  0  0  0  0
   19.1615   -5.9167    0.0000 C   0  0  0  0  0  0  0  0  0  0  0  0
   18.4495   -5.5000    0.0000 C   0  0  0  0  0  0  0  0  0  0  0  0
   17.7375   -6.7417    0.0000 C   0  0  0  0  0  0  0  0  0  0  0  0
   17.7401   -5.9143    0.0000 C   0  0  0  0  0  0  0  0  0  0  0  0
   17.0260   -5.5002    0.0000 C   0  0  0  0  0  0  0  0  0  0  0  0
   16.3089   -5.9123    0.0000 C   0  0  0  0  0  0  0  0  0  0  0  0
   16.3103   -6.7428    0.0000 C   0  0  0  0  0  0  0  0  0  0  0  0
   17.0250   -7.1532    0.0000 C   0  0  0  0  0  0  0  0  0  0  0  0
   15.5945   -5.4997    0.0000 O   0  0  0  0  0  0  0  0  0  0  0  0
   15.5946   -4.6747    0.0000 C   0  0  0  0  0  0  0  0  0  0  0  0
   15.5967   -7.1568    0.0000 O   0  0  0  0  0  0  0  0  0  0  0  0
   14.8814   -6.7457    0.0000 C   0  0  0  0  0  0  0  0  0  0  0  0
   18.4495   -7.9750    0.0000 C   0  0  0  0  0  0  0  0  0  0  0  0
   17.7350   -8.3875    0.0000 C   0  0  0  0  0  0  0  0  0  0  0  0
   17.0219   -7.9706    0.0000 C   0  0  0  0  0  0  0  0  0  0  0  0
   16.3079   -8.3824    0.0000 C   0  0  0  0  0  0  0  0  0  0  0  0
   16.3075   -9.2083    0.0000 C   0  0  0  0  0  0  0  0  0  0  0  0
   17.0270   -9.6206    0.0000 C   0  0  0  0  0  0  0  0  0  0  0  0
   17.7380   -9.2064    0.0000 C   0  0  0  0  0  0  0  0  0  0  0  0
   19.8754   -7.1552    0.0000 C   0  0  0  0  0  0  0  0  0  0  0  0
   20.5905   -6.7437    0.0000 C   0  0  0  0  0  0  0  0  0  0  0  0
   21.3043   -7.1573    0.0000 N   0  0  0  0  0  0  0  0  0  0  0  0
   20.5917   -5.9187    0.0000 O   0  0  0  0  0  0  0  0  0  0  0  0
   22.0194   -6.7458    0.0000 C   0  0  0  0  0  0  0  0  0  0  0  0
   22.0206   -5.9208    0.0000 C   0  0  0  0  0  0  0  0  0  0  0  0
   22.7379   -5.5110    0.0000 C   0  0  0  0  0  0  0  0  0  0  0  0
   22.7395   -4.6868    0.0000 C   0  0  0  0  0  0  0  0  0  0  0  0
   22.0251   -4.2724    0.0000 C   0  0  0  0  0  0  0  0  0  0  0  0
   21.3076   -4.6883    0.0000 C   0  0  0  0  0  0  0  0  0  0  0  0
   21.3096   -5.5112    0.0000 C   0  0  0  0  0  0  0  0  0  0  0  0
   17.0299  -10.4456    0.0000 Cl  0  0  0  0  0  0  0  0  0  0  0  0
   15.5935   -9.6217    0.0000 Cl  0  0  0  0  0  0  0  0  0  0  0  0
  7  8  2  0  0  0  0 
 16 17  2  0  0  0  0 
  2  3  1  0  0  0  0 
 17 18  1  0  0  0  0 
  8  9  1  0  0  0  0 
 18 19  2  0  0  0  0 
  3  4  1  0  0  0  0 
 19 20  1  0  0  0  0 
  9 10  2  0  0  0  0 
 20 21  2  0  0  0  0 
 21 16  1  0  0  0  0 
 10  5  1  0  0  0  0 
  2 22  1  0  0  0  0 
 22 23  1  0  0  0  0 
  8 11  1  0  0  0  0 
 23 24  1  0  0  0  0 
  6  4  1  0  0  0  0 
 23 25  2  0  0  0  0 
 11 12  1  0  0  0  0 
 24 26  1  0  0  0  0 
  5  6  2  0  0  0  0 
 26 27  1  0  0  0  0 
  9 13  1  0  0  0  0 
 27 28  2  0  0  0  0 
  5  1  1  0  0  0  0 
 28 29  1  0  0  0  0 
 13 14  1  0  0  0  0 
 29 30  2  0  0  0  0 
  6  7  1  0  0  0  0 
 30 31  1  0  0  0  0 
  1 15  1  0  0  0  0 
 31 32  2  0  0  0  0 
 32 27  1  0  0  0  0 
  1  2  1  0  0  0  0 
 20 33  1  0  0  0  0 
 15 16  1  0  0  0  0 
 19 34  1  0  0  0  0 
M  END
> <chembl_id>
CHEMBL489485

$$$$

  SciTegic04191615122D

 30 33  0  0  0  0            999 V2000
    2.5951   -3.0039    0.0000 C   0  0
    2.5973   -1.5031    0.0000 C   0  0
    1.3786   -3.8595    0.0000 N   0  0
    1.8372   -5.2877    0.0000 C   0  0
    3.3372   -5.2929    0.0000 S   0  0
    3.8056   -3.8679    0.0000 C   0  0
    1.5587   -0.9019    0.0000 O   0  0
    3.8976   -0.7537    0.0000 N   0  0
    3.9019    0.7463    0.0000 C   0  0  1  0  0  0
    5.2031    1.4926    0.0000 C   0  0
    6.4999    0.7389    0.0000 C   0  0
    6.4957   -0.7611    0.0000 C   0  0
    5.1945   -1.5074    0.0000 C   0  0
    2.6027    1.4978    0.0000 C   0  0
    1.3019    0.7492    0.0000 C   0  0
    0.0027    1.5006    0.0000 O   0  0
   -1.2981    0.7521    0.0000 C   0  0
   -2.5976    1.5012    0.0000 C   0  0
   -3.8962    0.7504    0.0000 C   0  0
   -3.8953   -0.7496    0.0000 C   0  0
   -2.5958   -1.4988    0.0000 C   0  0
   -1.2972   -0.7480    0.0000 C   0  0
   -4.9342   -1.3502    0.0000 F   0  0
    1.1285   -6.2561    0.0000 C   0  0
    5.2318   -3.4007    0.0000 C   0  0
    5.6533   -1.9665    0.0000 C   0  0
    7.1113   -1.6142    0.0000 C   0  0
    8.1455   -2.7007    0.0000 C   0  0
    7.7216   -4.1395    0.0000 C   0  0
    6.2636   -4.4919    0.0000 C   0  0
  1  2  1  0
  1  3  1  0
  3  4  2  0
  4  5  1  0
  5  6  1  0
  6  1  2  0
  2  7  2  0
  2  8  1  0
  8  9  1  0
  8 13  1  0
  9 10  1  0
 10 11  1  0
 11 12  1  0
 12 13  1  0
  9 14  1  6
 14 15  1  0
 15 16  1  0
 16 17  1  0
 17 18  2  0
 18 19  1  0
 19 20  2  0
 20 21  1  0
 21 22  2  0
 22 17  1  0
 20 23  1  0
  4 24  1  0
  6 25  1  0
 25 26  2  0
 26 27  1  0
 27 28  2  0
 28 29  1  0
 29 30  2  0
 30 25  1  0
M  END
> <chembl_id>
CHEMBL3597953

$$$$

  SciTegic12151613582D

 30 33  0  0  0  0            999 V2000
    9.3993   -6.4148    0.0000 C   0  0
   10.8992   -6.4029    0.0000 C   0  0
   11.6389   -5.0980    0.0000 C   0  0
   10.8787   -3.8049    0.0000 C   0  0
    9.3787   -3.8167    0.0000 C   0  0
    8.6390   -5.1217    0.0000 C   0  0
   11.6188   -2.4994    0.0000 N   0  0
   10.9892   -1.1519    0.0000 N   0  0
   12.0976   -0.1412    0.0000 C   0  0
   13.4013   -0.8829    0.0000 C   0  0
   13.0987   -2.3521    0.0000 N   0  0
    8.8075   -7.4587    0.0000 C   0  0
    8.6154   -2.5245    0.0000 C   0  0
    9.2053   -1.4795    0.0000 O   0  0
    7.1146   -2.5384    0.0000 N   0  0
    6.3513   -1.2462    0.0000 C   0  0
    6.3741   -3.8439    0.0000 C   0  0
    5.1741   -3.8537    0.0000 C   0  0
    4.8506   -1.2602    0.0000 C   0  0
    4.0872    0.0320    0.0000 N   0  0
    2.5889    0.0182    0.0000 C   0  0
    4.6772    1.0770    0.0000 C   0  0
    1.7138    1.2033    0.0000 O   0  0
    1.7138   -1.2033    0.0000 N   0  0
    0.2917   -0.7475    0.0000 C   0  0
    0.2917    0.7475    0.0000 C   0  0
   -1.0028    1.5132    0.0000 C   0  0
   -2.3155    0.7475    0.0000 C   0  0
   -2.3155   -0.7475    0.0000 C   0  0
   -1.0028   -1.5132    0.0000 C   0  0
  1  2  2  0
  2  3  1  0
  3  4  2  0
  4  5  1  0
  5  6  2  0
  6  1  1  0
  7  8  1  0
  8  9  2  0
  9 10  1  0
 10 11  2  0
 11  7  1  0
  4  7  1  0
  1 12  1  0
  5 13  1  0
 13 14  2  0
 13 15  1  0
 15 16  1  0
 15 17  1  0
 17 18  1  0
 16 19  1  0
 19 20  1  0
 20 21  1  0
 20 22  1  0
 21 23  1  0
 23 26  1  0
 25 24  1  0
 24 21  2  0
 25 26  2  0
 26 27  1  0
 27 28  2  0
 28 29  1  0
 29 30  2  0
 30 25  1  0
M  END
> <chembl_id>
CHEMBL3770745

$$$$

  SciTegic04191615122D

 29 32  0  0  0  0            999 V2000
    2.5951   -3.0039    0.0000 C   0  0
    2.5973   -1.5031    0.0000 C   0  0
    1.3786   -3.8595    0.0000 N   0  0
    1.8372   -5.2877    0.0000 C   0  0
    3.3372   -5.2929    0.0000 S   0  0
    3.8056   -3.8679    0.0000 C   0  0
    3.6375   -0.9049    0.0000 O   0  0
    1.2990   -0.7500    0.0000 N   0  0
    1.2990    0.7500    0.0000 C   0  0
    0.0000    1.5000    0.0000 C   0  0  1  0  0  0
   -1.2990    0.7500    0.0000 C   0  0
   -1.2990   -0.7500    0.0000 C   0  0
    0.0000   -1.5000    0.0000 C   0  0
    1.1285   -6.2561    0.0000 C   0  0
    5.2318   -3.4007    0.0000 C   0  0
    5.6533   -1.9665    0.0000 C   0  0
    7.1113   -1.6142    0.0000 C   0  0
    8.1455   -2.7007    0.0000 C   0  0
    7.7216   -4.1395    0.0000 C   0  0
    6.2636   -4.4919    0.0000 C   0  0
    0.0031    3.0008    0.0000 C   0  0
    1.3039    3.7494    0.0000 O   0  0
    1.3070    5.2502    0.0000 C   0  0
    2.6060    6.0003    0.0000 C   0  0
    2.6060    7.5003    0.0000 C   0  0
    1.3070    8.2503    0.0000 C   0  0
    0.0079    7.5003    0.0000 C   0  0
    0.0079    6.0003    0.0000 C   0  0
    1.3070    9.4503    0.0000 F   0  0
  1  2  1  0
  1  3  1  0
  3  4  2  0
  4  5  1  0
  5  6  1  0
  6  1  2  0
  2  7  2  0
  2  8  1  0
  8  9  1  0
  8 13  1  0
  9 10  1  0
 10 11  1  0
 11 12  1  0
 12 13  1  0
  4 14  1  0
  6 15  1  0
 15 16  2  0
 16 17  1  0
 17 18  2  0
 18 19  1  0
 19 20  2  0
 20 15  1  0
 10 21  1  1
 21 22  1  0
 22 23  1  0
 23 24  2  0
 24 25  1  0
 25 26  2  0
 26 27  1  0
 27 28  2  0
 28 23  1  0
 26 29  1  0
M  END
> <chembl_id>
CHEMBL3597954

$$$$

  SciTegic12231509382D

 34 38  0  0  0  0            999 V2000
   13.1800   -0.5042    0.0000 C   0  0
   13.1800   -1.3293    0.0000 C   0  0
   13.8921   -1.7377    0.0000 N   0  0
   14.6042   -1.3293    0.0000 C   0  0  1  0  0  0
   14.6042   -0.5042    0.0000 C   0  0
   13.8921   -0.0875    0.0000 C   0  0
   13.8921   -2.5626    0.0000 C   0  0
   13.1776   -2.9751    0.0000 C   0  0
   14.6066   -2.9752    0.0000 O   0  0
   12.3901   -2.7202    0.0000 N   0  0
   11.9059   -3.3882    0.0000 C   0  0
   12.3917   -4.0552    0.0000 S   0  0
   13.1765   -3.7991    0.0000 C   0  0
   15.3181   -1.7428    0.0000 C   0  0
   16.0332   -1.3313    0.0000 N   0  0
   16.7471   -1.7449    0.0000 C   0  0
   17.4622   -1.3334    0.0000 C   0  0
   16.7459   -2.5700    0.0000 O   0  0
   18.8927   -0.5120    0.0000 C   0  0
   18.1737   -0.0985    0.0000 C   0  0
   17.4620   -0.5118    0.0000 C   0  0
   18.8911   -1.3379    0.0000 C   0  0
   18.1759   -1.7472    0.0000 C   0  0
   18.3442   -2.5538    0.0000 C   0  0
   19.1634   -2.6432    0.0000 C   0  0
   19.5013   -1.8916    0.0000 O   0  0
   11.0809   -3.3892    0.0000 C   0  0
   13.9083   -4.1802    0.0000 C   0  0
   13.9410   -5.0043    0.0000 C   0  0
   14.6719   -5.3854    0.0000 C   0  0
   15.3688   -4.9421    0.0000 C   0  0
   15.3301   -4.1137    0.0000 C   0  0
   14.5988   -3.7364    0.0000 C   0  0
   16.1011   -5.3222    0.0000 F   0  0
  1  2  1  0
  1  6  1  0
  2  3  1  0
  3  4  1  0
  4  5  1  0
  5  6  1  0
  3  7  1  0
  7  8  1  0
  7  9  2  0
  8 10  1  0
 10 11  2  0
 11 12  1  0
 12 13  1  0
 13  8  2  0
  4 14  1  1
 14 15  1  0
 15 16  1  0
 16 17  1  0
 16 18  2  0
 17 23  2  0
 22 19  2  0
 19 20  1  0
 20 21  2  0
 21 17  1  0
 22 23  1  0
 23 24  1  0
 24 25  2  0
 25 26  1  0
 26 22  1  0
 11 27  1  0
 13 28  1  0
 28 29  2  0
 29 30  1  0
 30 31  2  0
 31 32  1  0
 32 33  2  0
 33 28  1  0
 31 34  1  0
M  END
> <chembl_id>
CHEMBL1272307

$$$$

  SciTegic04191610272D

 29 32  0  0  0  0            999 V2000
    6.3430   -1.4779    0.0000 C   0  0
    4.8587   -1.2613    0.0000 C   0  0
    4.0896    0.0290    0.0000 N   0  0
    7.4377   -0.4524    0.0000 N   0  0
    4.6439    1.4331    0.0000 C   0  0
    6.0752    1.8820    0.0000 C   0  0
    2.5889    0.0182    0.0000 C   0  0
    1.7138    1.2033    0.0000 N   0  0
    1.7138   -1.2033    0.0000 S   0  0
    0.2917   -0.7475    0.0000 C   0  0
    0.2917    0.7475    0.0000 C   0  0
   -1.0028    1.5132    0.0000 C   0  0
   -2.3155    0.7475    0.0000 C   0  0
   -2.3155   -0.7475    0.0000 C   0  0
   -1.0028   -1.5132    0.0000 C   0  0
    8.8403   -0.9919    0.0000 C   0  0
    9.0268   -2.1774    0.0000 O   0  0
   10.0079   -0.0490    0.0000 C   0  0
   11.4087   -0.5855    0.0000 C   0  0
   12.5738    0.3593    0.0000 C   0  0
   12.3381    1.8406    0.0000 C   0  0
   10.9373    2.3772    0.0000 C   0  0
    9.7723    1.4324    0.0000 C   0  0
    8.3719    1.9722    0.0000 O   0  0
    7.3185    1.0429    0.0000 C   0  0
   11.6476   -2.0672    0.0000 O   0  0
   12.7688   -2.4948    0.0000 C   0  0
    8.1851    3.1576    0.0000 C   0  0
   -3.3560   -1.3452    0.0000 Cl  0  0
  1  2  1  0
  2  3  1  0
  1  4  1  0
  3  5  1  0
  4 25  1  0
  5  6  1  0
 25  6  1  0
  7  8  2  0
  8 11  1  0
 10  9  1  0
  9  7  1  0
  3  7  1  0
 10 11  2  0
 11 12  1  0
 12 13  2  0
 13 14  1  0
 14 15  2  0
 15 10  1  0
  4 16  1  0
 16 17  2  0
 16 18  1  0
 18 19  2  0
 19 20  1  0
 20 21  2  0
 21 22  1  0
 22 23  2  0
 23 18  1  0
 23 24  1  0
 26 27  1  0
 19 26  1  0
 24 28  1  0
 14 29  1  0
M  END
> <chembl_id>
CHEMBL3586412

$$$$

  SciTegic01161211252D

 32 36  0  0  0  0            999 V2000
    7.0397   -8.4238    0.0000 C   0  0
    7.0397   -9.2533    0.0000 C   0  0
    7.7541   -9.6658    0.0000 C   0  0
    7.7541   -8.0068    0.0000 C   0  0
    8.4732   -8.4238    0.0000 C   0  0
    8.4743   -9.2533    0.0000 C   0  0
    9.1892   -9.6650    0.0000 N   0  0
    9.9077   -9.2515    0.0000 C   0  0
    9.9066   -8.4220    0.0000 N   0  0
    9.1870   -8.0058    0.0000 C   0  0
   10.6216   -9.6645    0.0000 N   0  0
   11.7453  -11.1595    0.0000 C   0  0  1  0  0  0
   12.2672  -10.4853    0.0000 N   0  0
   12.0647   -9.7047    0.0000 C   0  0
   10.9135  -11.1555    0.0000 C   0  0
   10.4125  -10.5025    0.0000 C   0  0
   11.3391   -9.3411    0.0000 C   0  0
   13.0913  -10.5228    0.0000 C   0  0
   13.4709  -11.2553    0.0000 C   0  0
   13.5359   -9.8279    0.0000 O   0  0
   13.0244  -11.9463    0.0000 C   0  0
   13.4034  -12.6783    0.0000 C   0  0
   14.2283  -12.7162    0.0000 C   0  0
   14.6729  -12.0162    0.0000 C   0  0
   14.2915  -11.2872    0.0000 C   0  0
   14.7841  -10.6245    0.0000 N   0  0
   15.6090  -10.6372    0.0000 N   0  0
   15.8761   -9.8567    0.0000 C   0  0
   15.2161   -9.3615    0.0000 C   0  0
   14.5414   -9.8361    0.0000 N   0  0
   12.1067  -11.9009    0.0000 C   0  0
    6.3243   -8.0130    0.0000 F   0  0
 12 15  1  0
 16 11  1  0
 11 17  1  0
 17 14  1  0
 15 16  1  0
  5 10  2  0
 13 18  1  0
  6  7  2  0
 18 19  1  0
  7  8  1  0
 18 20  2  0
  8  9  2  0
 19 21  2  0
  9 10  1  0
 21 22  1  0
  5  6  1  0
 22 23  2  0
  8 11  1  0
 23 24  1  0
 24 25  2  0
 25 19  1  0
 26 27  1  0
  1  2  1  0
  1  4  2  0
  2  3  2  0
  3  6  1  0
  5  4  1  0
 27 28  2  0
 28 29  1  0
 29 30  2  0
 30 26  1  0
 25 26  1  0
 12 13  1  0
 12 31  1  6
 13 14  1  0
  1 32  1  0
M  END
> <chembl_id>
CHEMBL1083358

$$$$

  SciTegic11301210262D

 33 36  0  0  0  0            999 V2000
    7.3799   -3.8761    0.0000 C   0  0
    8.1082   -4.2858    0.0000 C   0  0
    7.3701   -3.0378    0.0000 C   0  0
    6.5666   -2.6680    0.0000 C   0  0
    6.4888   -1.8738    0.0000 O   0  0
    8.0936   -2.6293    0.0000 C   0  0
    8.0920   -1.8243    0.0000 C   0  0
    7.3585   -1.3859    0.0000 N   0  0
    8.7775   -1.3859    0.0000 N   0  0
    8.8228   -3.0418    0.0000 C   0  0
    8.8234   -3.8778    0.0000 C   0  0
    4.5439   -3.0524    0.0000 C   0  0  1  0  0  0
    3.8337   -2.6551    0.0000 C   0  0
    3.1018   -3.0358    0.0000 O   0  0
    5.2650   -2.6238    0.0000 C   0  0
    5.9396   -3.0358    0.0000 N   0  0
    4.5599   -3.8685    0.0000 C   0  0
    5.2547   -4.2790    0.0000 C   0  0
    6.0088   -3.9309    0.0000 C   0  0  1  0  0  0
    0.9823   -1.8099    0.0000 C   0  0
    0.9894   -2.6431    0.0000 C   0  0
    0.2970   -1.3859    0.0000 F   0  0
    1.7056   -1.4131    0.0000 C   0  0
    2.4089   -1.8149    0.0000 N   0  0
    2.4215   -2.6410    0.0000 C   0  0
    1.7051   -3.0484    0.0000 C   0  0
    7.3750   -0.5965    0.0000 C   0  0
    8.1039   -0.1871    0.0000 C   0  0
    8.8221   -0.5873    0.0000 C   0  0
    6.5501   -4.5537    0.0000 C   0  0
    3.9605   -3.6358    0.0000 H   0  0
    6.7233   -3.5184    0.0000 H   0  0
    8.1082   -5.1108    0.0000 C   0  0
  1  2  2  0
  1  3  1  0
  3  6  2  0
  4  3  1  0
  4  5  2  0
  6  7  1  0
  6 10  1  0
  7  8  1  0
  7  9  2  0
  8 27  2  0
 10 11  2  0
 11  2  1  0
 12 15  1  0
 12 17  1  0
 14 13  1  0
 15 16  1  0
 16  4  1  0
 18 19  1  0
 18 17  1  0
 19 30  1  6
 19 16  1  0
 20 21  1  0
 20 23  2  0
 21 26  2  0
 22 20  1  0
 23 24  1  0
 24 25  2  0
 25 14  1  0
 26 25  1  0
 27 28  1  0
 28 29  2  0
 29  9  1  0
 12 13  1  1
 12 31  1  6
 19 32  1  1
  2 33  1  0
M  END
> <chembl_id>
CHEMBL2107822

$$$$

  SciTegic05171617282D

 27 29  0  0  1  0            999 V2000
    2.5956   -2.7031    0.0000 C   0  0
    2.5973   -1.5031    0.0000 O   0  0
    1.2990   -0.7500    0.0000 C   0  0
    1.2990    0.7500    0.0000 C   0  0
    0.0000    1.5000    0.0000 C   0  0
   -1.2990    0.7500    0.0000 C   0  0
   -1.2990   -0.7500    0.0000 C   0  0
    0.0000   -1.5000    0.0000 C   0  0
   -2.5988    1.5004    0.0000 S   0  0
   -3.6378    0.9001    0.0000 O   0  0
   -2.5986    0.3004    0.0000 O   0  0
   -2.5998    3.0012    0.0000 N   0  0
   -3.8138    3.8602    0.0000 C   0  0
   -3.3512    5.2871    0.0000 C   0  0
   -1.8512    5.2880    0.0000 C   0  0
   -1.3868    3.8617    0.0000 C   0  0  1  0  0  0
    0.0338    3.3858    0.0000 C   0  0
    0.9326    4.1808    0.0000 O   0  0
    0.3333    1.9151    0.0000 N   0  0
    1.7563    1.4382    0.0000 C   0  0
    2.0578   -0.0312    0.0000 C   0  0
    3.4810   -0.5049    0.0000 C   0  0
    4.6029    0.4908    0.0000 C   0  0
    4.3015    1.9602    0.0000 C   0  0
    5.4219    2.9588    0.0000 S   0  0
    5.1792    4.1340    0.0000 C   0  0
    2.8783    2.4339    0.0000 C   0  0
  1  2  1  0
  2  3  1  0
  3  4  2  0
  4  5  1  0
  5  6  2  0
  6  7  1  0
  7  8  2  0
  3  8  1  0
  6  9  1  0
  9 10  2  0
  9 11  2  0
  9 12  1  0
 12 13  1  0
 13 14  1  0
 14 15  1  0
 15 16  1  0
 12 16  1  0
 16 17  1  1
 17 18  2  0
 17 19  1  0
 19 20  1  0
 20 21  2  0
 21 22  1  0
 22 23  2  0
 23 24  1  0
 24 25  1  0
 25 26  1  0
 24 27  2  0
 20 27  1  0
M  END
> <chembl_id>
CHEMBL3667554

$$$$

  SciTegic01161211252D

 32 36  0  0  0  0            999 V2000
    9.4130  -21.2520    0.0000 C   0  0
   10.1273  -21.6653    0.0000 N   0  0
   11.2516  -23.1610    0.0000 C   0  0  1  0  0  0
   11.7738  -22.4865    0.0000 N   0  0
   11.5713  -21.7055    0.0000 C   0  0
   10.4194  -23.1570    0.0000 C   0  0
    9.9182  -22.5037    0.0000 C   0  0
   10.8452  -21.3417    0.0000 C   0  0
   12.5984  -22.5240    0.0000 C   0  0
   12.9781  -23.2569    0.0000 C   0  0
   13.0431  -21.8287    0.0000 O   0  0
   12.5314  -23.9482    0.0000 C   0  0
   12.9105  -24.6806    0.0000 C   0  0
   13.7359  -24.7186    0.0000 C   0  0
   14.1807  -24.0182    0.0000 C   0  0
   13.7992  -23.2888    0.0000 C   0  0
   14.2921  -22.6258    0.0000 N   0  0
   15.1174  -22.6385    0.0000 N   0  0
   15.3845  -21.8575    0.0000 C   0  0
   14.7243  -21.3621    0.0000 C   0  0
   14.0492  -21.8370    0.0000 N   0  0
   11.6133  -23.9029    0.0000 C   0  0
    9.3246  -20.4306    0.0000 O   0  0
    8.6561  -21.5863    0.0000 N   0  0
    8.1044  -20.9726    0.0000 C   0  0
    8.5175  -20.2598    0.0000 C   0  0
    8.1067  -19.5478    0.0000 C   0  0
    7.2831  -19.5473    0.0000 C   0  0
    6.8719  -20.2650    0.0000 C   0  0
    7.2850  -20.9740    0.0000 C   0  0
   12.4654  -25.3757    0.0000 C   0  0
    6.0465  -20.2679    0.0000 Cl  0  0
 15 16  2  0
 16 10  1  0
 17 18  1  0
  6  7  1  0
  4  9  1  0
  1  2  1  0
  9 10  1  0
 18 19  2  0
 19 20  1  0
 20 21  2  0
 21 17  1  0
 16 17  1  0
  3  4  1  0
  3 22  1  6
  1 23  1  0
  9 11  2  0
  4  5  1  0
 23 26  1  0
 25 24  1  0
 24  1  2  0
 10 12  2  0
  3  6  1  0
 25 26  2  0
 12 13  1  0
 26 27  1  0
  7  2  1  0
 27 28  2  0
 13 14  2  0
 28 29  1  0
  2  8  1  0
 29 30  2  0
 30 25  1  0
 14 15  1  0
 13 31  1  0
  8  5  1  0
 29 32  1  0
M  END
> <chembl_id>
CHEMBL1083659

$$$$

  CDK    9/16/09,9:59

 26 28  0  0  0  0  0  0  0  0999 V2000
    3.4812   -5.9351    0.0000 C   0  0  0  0  0  0  0  0  0  0  0  0
    3.4801   -6.7634    0.0000 C   0  0  0  0  0  0  0  0  0  0  0  0
    4.1956   -7.1766    0.0000 C   0  0  0  0  0  0  0  0  0  0  0  0
    4.9128   -6.7629    0.0000 C   0  0  0  0  0  0  0  0  0  0  0  0
    4.9100   -5.9315    0.0000 C   0  0  0  0  0  0  0  0  0  0  0  0
    4.1938   -5.5219    0.0000 C   0  0  0  0  0  0  0  0  0  0  0  0
    5.6287   -7.1746    0.0000 N   0  0  0  0  0  0  0  0  0  0  0  0
    6.3432   -6.7607    0.0000 C   0  0  0  0  0  0  0  0  0  0  0  0
    7.0590   -7.1724    0.0000 N   0  0  0  0  0  0  0  0  0  0  0  0
    6.3419   -5.9348    0.0000 O   0  0  0  0  0  0  0  0  0  0  0  0
    7.7723   -5.9325    0.0000 C   0  0  0  0  0  0  0  0  0  0  0  0
    7.7701   -6.7567    0.0000 C   0  0  0  0  0  0  0  0  0  0  0  0
    8.4787   -7.1683    0.0000 C   0  0  0  0  0  0  0  0  0  0  0  0
    9.1942   -6.7606    0.0000 O   0  0  0  0  0  0  0  0  0  0  0  0
    9.1964   -5.9364    0.0000 C   0  0  0  0  0  0  0  0  0  0  0  0
    8.4831   -5.5200    0.0000 O   0  0  0  0  0  0  0  0  0  0  0  0
    9.6014   -5.2178    0.0000 C   0  0  0  0  0  0  0  0  0  0  0  0
    9.9893   -5.7183    0.0000 C   0  0  0  0  0  0  0  0  0  0  0  0
    8.4753   -7.9942    0.0000 C   0  0  0  0  0  0  0  0  0  0  0  0
    7.7586   -8.4007    0.0000 C   0  0  0  0  0  0  0  0  0  0  0  0
    7.7549   -9.2258    0.0000 C   0  0  0  0  0  0  0  0  0  0  0  0
    8.4688   -9.6426    0.0000 C   0  0  0  0  0  0  0  0  0  0  0  0
    9.1882   -9.2281    0.0000 C   0  0  0  0  0  0  0  0  0  0  0  0
    9.1883   -8.4044    0.0000 C   0  0  0  0  0  0  0  0  0  0  0  0
    4.1954   -8.0025    0.0000 Br  0  0  0  0  0  0  0  0  0  0  0  0
    2.7660   -5.5223    0.0000 Br  0  0  0  0  0  0  0  0  0  0  0  0
  1  2  2  0  0  0  0 
  4  7  1  0  0  0  0 
  3  4  2  0  0  0  0 
 11 16  1  0  0  0  0 
 12 13  1  0  0  0  0 
 13 14  1  0  0  0  0 
 14 15  1  0  0  0  0 
 15 16  1  0  0  0  0 
  7  8  1  0  0  0  0 
 15 17  1  0  0  0  0 
 15 18  1  0  0  0  0 
  8  9  1  0  0  0  0 
 13 19  1  1  0  0  0 
  4  5  1  0  0  0  0 
 19 20  2  0  0  0  0 
  8 10  2  0  0  0  0 
 20 21  1  0  0  0  0 
 12  9  1  1  0  0  0 
 21 22  2  0  0  0  0 
 12 11  1  0  0  0  0 
 22 23  1  0  0  0  0 
  2  3  1  0  0  0  0 
 23 24  2  0  0  0  0 
 24 19  1  0  0  0  0 
  5  6  2  0  0  0  0 
  3 25  1  0  0  0  0 
  6  1  1  0  0  0  0 
  1 26  1  0  0  0  0 
M  END
> <chembl_id>
CHEMBL359632

$$$$

  SciTegic12151613582D

 31 34  0  0  0  0            999 V2000
    1.2990   -0.7500    0.0000 C   0  0  1  0  0  0
    1.2990    0.7500    0.0000 C   0  0
    0.0000    1.5000    0.0000 C   0  0
   -1.2990    0.7500    0.0000 C   0  0  2  0  0  0
   -1.2990   -0.7500    0.0000 N   0  0
    0.0000   -1.5000    0.0000 C   0  0
   -2.5972   -1.5031    0.0000 C   0  0
   -2.5951   -3.0039    0.0000 C   0  0
   -3.6375   -0.9049    0.0000 O   0  0
   -1.2935   -3.7495    0.0000 C   0  0
   -1.2883   -5.2495    0.0000 C   0  0
   -2.5847   -6.0040    0.0000 C   0  0
   -3.8863   -5.2585    0.0000 C   0  0
   -3.8915   -3.7585    0.0000 C   0  0
   -5.1938   -3.0127    0.0000 N   0  0
   -5.3392   -1.5325    0.0000 N   0  0
   -6.8080   -1.2281    0.0000 C   0  0
   -7.5514   -2.5309    0.0000 C   0  0
   -6.5421   -3.6405    0.0000 N   0  0
    2.6003   -1.4977    0.0000 C   0  0
    3.8990   -0.7455    0.0000 O   0  0
    5.2003   -1.4932    0.0000 C   0  0
    6.4994   -0.7432    0.0000 C   0  0
    7.7985   -1.4932    0.0000 C   0  0
    7.7985   -2.9932    0.0000 C   0  0
    6.4995   -3.7432    0.0000 C   0  0
    5.2004   -2.9933    0.0000 C   0  0
    8.8377   -0.8932    0.0000 C   0  0
    8.8378   -3.5932    0.0000 F   0  0
   -0.2470   -5.8459    0.0000 C   0  0
   -2.3383    1.3500    0.0000 C   0  0
  1  2  1  0
  1  6  1  0
  2  3  1  0
  3  4  1  0
  4  5  1  0
  5  6  1  0
  5  7  1  0
  7  8  1  0
  7  9  2  0
  8 10  2  0
 10 11  1  0
 11 12  2  0
 12 13  1  0
 13 14  2  0
 14  8  1  0
 15 16  1  0
 16 17  2  0
 17 18  1  0
 18 19  2  0
 19 15  1  0
 14 15  1  0
  1 20  1  6
 20 21  1  0
 21 22  1  0
 22 23  2  0
 23 24  1  0
 24 25  2  0
 25 26  1  0
 26 27  2  0
 27 22  1  0
 24 28  1  0
 25 29  1  0
 11 30  1  0
  4 31  1  6
M  END
> <chembl_id>
CHEMBL3769978

$$$$
