
  SciTegic12091613582D

 29 32  0  0  0  0            999 V2000
    1.2990   -0.7500    0.0000 C   0  0
    0.0000   -1.5000    0.0000 C   0  0
   -1.2990   -0.7500    0.0000 C   0  0
   -1.2990    0.7500    0.0000 C   0  0
   -2.6003   -1.4978    0.0000 C   0  0
   -3.8990   -0.7455    0.0000 C   0  0  1  0  0  0
   -5.2526   -1.3618    0.0000 N   0  0
   -6.2524   -0.2436    0.0000 C   0  0
   -5.4979    1.0528    0.0000 C   0  0
   -4.0317    0.7358    0.0000 C   0  0
   -5.5609   -2.8279    0.0000 C   0  0
   -4.6672   -3.6287    0.0000 O   0  0
   -6.9870   -3.2957    0.0000 C   0  0
   -7.4287   -4.7158    0.0000 C   0  0
   -8.9287   -4.7169    0.0000 S   0  0
   -9.3933   -3.2906    0.0000 C   0  0
   -8.1804   -2.4081    0.0000 N   0  0
  -10.5348   -2.9206    0.0000 C   0  0
   -6.5386   -5.9241    0.0000 C   0  0
   -5.0446   -5.8755    0.0000 C   0  0
   -4.2536   -7.1500    0.0000 C   0  0
   -4.9618   -8.4722    0.0000 C   0  0
   -6.4610   -8.5201    0.0000 C   0  0
   -7.2520   -7.2456    0.0000 C   0  0
   -3.0542   -7.1117    0.0000 C   0  0
    1.2990    0.7500    0.0000 C   0  0
    0.0000    1.5000    0.0000 C   0  0
    2.3383   -1.3500    0.0000 Cl  0  0
    2.3383    1.3500    0.0000 Cl  0  0
 26  1  1  0
  1  2  2  0
  2  3  1  0
  3  4  2  0
  4 27  1  0
  3  5  1  0
  6  5  1  1
  6  7  1  0
  7  8  1  0
  8  9  1  0
  9 10  1  0
 10  6  1  0
  7 11  1  0
 11 12  2  0
 11 13  1  0
 13 14  2  0
 14 15  1  0
 15 16  1  0
 16 17  2  0
 17 13  1  0
 16 18  1  0
 14 19  1  0
 19 20  2  0
 20 21  1  0
 21 22  2  0
 22 23  1  0
 23 24  2  0
 24 19  1  0
 21 25  1  0
 26 27  2  0
  1 28  1  0
 26 29  1  0
M  END
> <chembl_id>
CHEMBL3741767

$$$$

  SciTegic12231509382D

 37 40  0  0  0  0            999 V2000
   13.7099   -9.2219    0.0000 N   0  0
   13.7099  -10.0469    0.0000 C   0  0
   14.4220  -10.4553    0.0000 C   0  0
   14.4220   -8.8051    0.0000 C   0  0  2  0  0  0
   15.1340   -9.2219    0.0000 C   0  0
   15.1324  -10.0451    0.0000 C   0  0
   15.8435  -10.4563    0.0000 C   0  0
   16.5566  -10.0455    0.0000 C   0  0
   16.5542   -9.2191    0.0000 C   0  0
   15.8426   -8.8116    0.0000 C   0  0
   14.4220   -7.9800    0.0000 C   0  0
   15.1365   -7.5675    0.0000 C   0  0
   15.1365   -6.7425    0.0000 C   0  0
   15.8577   -6.3309    0.0000 C   0  0
   15.8581   -5.5066    0.0000 C   0  0
   15.1430   -5.0995    0.0000 C   0  0
   14.4260   -5.5103    0.0000 C   0  0
   14.4293   -6.3331    0.0000 C   0  0
   12.9941   -8.8114    0.0000 C   0  0  2  0  0  0
   12.9917   -7.9863    0.0000 C   0  0
   12.2808   -9.2260    0.0000 C   0  0
   11.5650   -8.8156    0.0000 N   0  0
   12.2832  -10.0511    0.0000 O   0  0
   10.8517   -9.2303    0.0000 C   0  0
   13.7048   -7.5733    0.0000 C   0  0
   13.7028   -6.7490    0.0000 C   0  0
   12.9865   -6.3378    0.0000 C   0  0
   12.2708   -6.7568    0.0000 C   0  0
   12.2764   -7.5798    0.0000 C   0  0
   17.2674   -8.8042    0.0000 O   0  0
   17.9833   -9.2144    0.0000 C   0  0
   17.2716  -10.4573    0.0000 O   0  0
   17.2724  -11.2823    0.0000 C   0  0
   15.1419   -4.2744    0.0000 C   0  0
   15.8558   -3.8610    0.0000 F   0  0
   14.4267   -3.8629    0.0000 F   0  0
   15.1350   -3.4462    0.0000 F   0  0
  1  2  1  0
  1  4  1  0
  2  3  1  0
  3  6  1  0
  5  4  1  0
  5  6  2  0
  6  7  1  0
  7  8  2  0
  8  9  1  0
  9 10  2  0
 10  5  1  0
  4 11  1  1
 11 12  1  0
 12 13  1  0
 13 14  2  0
 14 15  1  0
 15 16  2  0
 16 17  1  0
 17 18  2  0
 18 13  1  0
  1 19  1  0
 19 20  1  1
 19 21  1  0
 21 22  1  0
 21 23  2  0
 22 24  1  0
 20 25  2  0
 25 26  1  0
 26 27  2  0
 27 28  1  0
 28 29  2  0
 29 20  1  0
  9 30  1  0
 30 31  1  0
  8 32  1  0
 32 33  1  0
 16 34  1  0
 34 35  1  0
 34 36  1  0
 34 37  1  0
M  END
> <chembl_id>
CHEMBL455136

$$$$

  SciTegic12091613592D

 31 34  0  0  0  0            999 V2000
    1.2990   -0.7500    0.0000 C   0  0
    0.0000   -1.5000    0.0000 C   0  0
   -1.2990   -0.7500    0.0000 C   0  0
   -1.2990    0.7500    0.0000 C   0  0
   -2.6003   -1.4978    0.0000 C   0  0
   -3.8990   -0.7455    0.0000 C   0  0  1  0  0  0
   -5.2526   -1.3618    0.0000 N   0  0
   -6.2524   -0.2436    0.0000 C   0  0
   -5.4979    1.0528    0.0000 C   0  0
   -4.0317    0.7358    0.0000 C   0  0
   -5.5609   -2.8279    0.0000 C   0  0
   -4.6672   -3.6287    0.0000 O   0  0
   -6.9870   -3.2957    0.0000 C   0  0
   -7.4287   -4.7158    0.0000 C   0  0
   -8.9287   -4.7169    0.0000 S   0  0
   -9.3933   -3.2906    0.0000 C   0  0
   -8.1804   -2.4081    0.0000 N   0  0
  -10.5348   -2.9206    0.0000 C   0  0
   -6.5386   -5.9241    0.0000 C   0  0
   -5.0446   -5.8755    0.0000 C   0  0
   -4.2536   -7.1500    0.0000 C   0  0
   -4.9618   -8.4722    0.0000 C   0  0
   -6.4610   -8.5201    0.0000 C   0  0
   -7.2520   -7.2456    0.0000 C   0  0
    1.2990    0.7500    0.0000 C   0  0
    0.0000    1.5000    0.0000 C   0  0
    2.5973   -1.5031    0.0000 O   0  0
    2.5956   -2.7031    0.0000 C   0  0
    2.5972    1.5031    0.0000 O   0  0
    2.5955    2.7031    0.0000 C   0  0
   -7.0276   -9.5779    0.0000 Cl  0  0
 25  1  1  0
  1  2  2  0
  2  3  1  0
  3  4  2  0
  4 26  1  0
  3  5  1  0
  6  5  1  1
  6  7  1  0
  7  8  1  0
  8  9  1  0
  9 10  1  0
 10  6  1  0
  7 11  1  0
 11 12  2  0
 11 13  1  0
 13 14  2  0
 14 15  1  0
 15 16  1  0
 16 17  2  0
 17 13  1  0
 16 18  1  0
 14 19  1  0
 19 20  2  0
 20 21  1  0
 21 22  2  0
 22 23  1  0
 23 24  2  0
 24 19  1  0
 25 26  2  0
  1 27  1  0
 27 28  1  0
 25 29  1  0
 29 30  1  0
 23 31  1  0
M  END
> <chembl_id>
CHEMBL3742079

$$$$

  SciTegic12091613582D

 31 34  0  0  0  0            999 V2000
    1.2990   -0.7500    0.0000 C   0  0
    1.2990    0.7500    0.0000 C   0  0
    0.0000    1.5000    0.0000 C   0  0
   -1.2990    0.7500    0.0000 C   0  0
   -1.2990   -0.7500    0.0000 C   0  0
    0.0000   -1.5000    0.0000 C   0  0
   -0.0031    3.0008    0.0000 O   0  0
   -1.0432    3.5993    0.0000 C   0  0
    2.6003    1.4978    0.0000 O   0  0
    3.6387    0.8963    0.0000 C   0  0
   -2.5972   -1.5031    0.0000 C   0  0
   -2.5951   -3.0039    0.0000 C   0  0  1  0  0  0
   -3.8056   -3.8680    0.0000 N   0  0
   -3.3371   -5.2929    0.0000 C   0  0
   -1.8371   -5.2877    0.0000 C   0  0
   -1.3786   -3.8595    0.0000 C   0  0
   -5.2295   -3.4020    0.0000 C   0  0
   -5.4761   -2.2276    0.0000 O   0  0
   -6.3476   -4.4031    0.0000 C   0  0
   -7.7984   -4.0756    0.0000 C   0  0
   -8.5493   -5.3741    0.0000 S   0  0
   -7.5464   -6.4896    0.0000 C   0  0
   -6.1756   -5.8804    0.0000 N   0  0
   -7.7967   -7.6632    0.0000 C   0  0
   -8.3997   -2.7006    0.0000 C   0  0
   -7.6106   -1.4311    0.0000 C   0  0
   -8.3188   -0.1088    0.0000 C   0  0
   -9.8181   -0.0610    0.0000 C   0  0
  -10.6091   -1.3355    0.0000 C   0  0
   -9.9009   -2.6577    0.0000 C   0  0
   -7.6860    0.9108    0.0000 C   0  0
  1  2  2  0
  2  3  1  0
  3  4  2  0
  4  5  1  0
  5  6  2  0
  6  1  1  0
  3  7  1  0
  7  8  1  0
  2  9  1  0
  9 10  1  0
  5 11  1  0
 12 11  1  6
 12 13  1  0
 13 14  1  0
 14 15  1  0
 15 16  1  0
 16 12  1  0
 13 17  1  0
 17 18  2  0
 17 19  1  0
 19 20  2  0
 20 21  1  0
 21 22  1  0
 22 23  2  0
 23 19  1  0
 22 24  1  0
 20 25  1  0
 25 26  2  0
 26 27  1  0
 27 28  2  0
 28 29  1  0
 29 30  2  0
 30 25  1  0
 27 31  1  0
M  END
> <chembl_id>
CHEMBL3739711

$$$$

  SciTegic12091613582D

 30 33  0  0  0  0            999 V2000
    1.2990   -0.7500    0.0000 C   0  0
    0.0000   -1.5000    0.0000 C   0  0
   -1.2990   -0.7500    0.0000 C   0  0
   -1.2990    0.7500    0.0000 C   0  0
   -2.6003   -1.4978    0.0000 C   0  0
   -3.8990   -0.7455    0.0000 C   0  0  1  0  0  0
   -5.2526   -1.3618    0.0000 N   0  0
   -6.2524   -0.2436    0.0000 C   0  0
   -5.4979    1.0528    0.0000 C   0  0
   -4.0317    0.7358    0.0000 C   0  0
   -5.5609   -2.8279    0.0000 C   0  0
   -4.6672   -3.6287    0.0000 O   0  0
   -6.9870   -3.2957    0.0000 C   0  0
   -7.4287   -4.7158    0.0000 C   0  0
   -8.9287   -4.7169    0.0000 S   0  0
   -9.3933   -3.2906    0.0000 C   0  0
   -8.1804   -2.4081    0.0000 N   0  0
  -10.5348   -2.9206    0.0000 C   0  0
   -6.5386   -5.9241    0.0000 C   0  0
   -5.0446   -5.8755    0.0000 C   0  0
   -4.2536   -7.1500    0.0000 C   0  0
   -4.9618   -8.4722    0.0000 C   0  0
   -6.4610   -8.5201    0.0000 C   0  0
   -7.2520   -7.2456    0.0000 C   0  0
   -3.0542   -7.1117    0.0000 C   0  0
    1.2990    0.7500    0.0000 C   0  0
    0.0000    1.5000    0.0000 C   0  0
    0.0000   -2.7000    0.0000 Cl  0  0
    2.6003   -1.4977    0.0000 O   0  0
    3.6387   -0.8963    0.0000 C   0  0
 26  1  1  0
  1  2  2  0
  2  3  1  0
  3  4  2  0
  4 27  1  0
  3  5  1  0
  6  5  1  1
  6  7  1  0
  7  8  1  0
  8  9  1  0
  9 10  1  0
 10  6  1  0
  7 11  1  0
 11 12  2  0
 11 13  1  0
 13 14  2  0
 14 15  1  0
 15 16  1  0
 16 17  2  0
 17 13  1  0
 16 18  1  0
 14 19  1  0
 19 20  2  0
 20 21  1  0
 21 22  2  0
 22 23  1  0
 23 24  2  0
 24 19  1  0
 21 25  1  0
 26 27  2  0
  2 28  1  0
  1 29  1  0
 29 30  1  0
M  END
> <chembl_id>
CHEMBL3741058

$$$$

  SciTegic12091613582D

 31 34  0  0  0  0            999 V2000
    1.2990   -0.7500    0.0000 C   0  0
    0.0000   -1.5000    0.0000 N   0  0
   -1.2990   -0.7500    0.0000 C   0  0
   -1.2990    0.7500    0.0000 C   0  0
    1.2990    0.7500    0.0000 C   0  0
    0.0000    1.5000    0.0000 C   0  0
    2.6003   -1.4977    0.0000 C   0  0
    3.8990   -0.7455    0.0000 C   0  0
    5.2007   -1.4909    0.0000 C   0  0
    6.4972   -0.7364    0.0000 C   0  0
    6.4920    0.7636    0.0000 C   0  0
    5.1903    1.5091    0.0000 C   0  0
    3.8939    0.7546    0.0000 C   0  0
    5.1821    3.0099    0.0000 O   0  0
    4.1399    3.6048    0.0000 C   0  0
    7.7907    1.5158    0.0000 O   0  0
    8.8311    0.9179    0.0000 C   0  0
   -0.0031   -3.0008    0.0000 C   0  0
    1.0351   -3.6026    0.0000 O   0  0
   -1.3039   -3.7494    0.0000 C   0  0
   -1.3092   -5.2494    0.0000 C   0  0
   -2.6108   -5.9949    0.0000 C   0  0
   -3.9072   -5.2404    0.0000 C   0  0
   -3.9020   -3.7404    0.0000 C   0  0
   -2.6004   -2.9949    0.0000 C   0  0
   -4.9392   -3.1369    0.0000 C   0  0
   -0.0121   -6.0043    0.0000 N   0  0
    1.3424   -5.3901    0.0000 N   0  0
    2.3405   -6.5099    0.0000 C   0  0
    1.5839   -7.8051    0.0000 C   0  0
    0.1183   -7.4859    0.0000 N   0  0
  6  4  1  0
  5  1  1  0
  1  2  1  0
  2  3  1  0
  3  4  1  0
  5  6  1  0
  1  7  1  0
  7  8  1  0
  8  9  2  0
  9 10  1  0
 10 11  2  0
 11 12  1  0
 12 13  2  0
 13  8  1  0
 12 14  1  0
 14 15  1  0
 11 16  1  0
 16 17  1  0
  2 18  1  0
 18 19  2  0
 18 20  1  0
 20 21  2  0
 21 22  1  0
 22 23  2  0
 23 24  1  0
 24 25  2  0
 25 20  1  0
 24 26  1  0
 21 27  1  0
 27 28  1  0
 28 29  2  0
 29 30  1  0
 30 31  2  0
 31 27  1  0
M  END
> <chembl_id>
CHEMBL3742089

$$$$

  SciTegic12091613592D

 32 35  0  0  0  0            999 V2000
    1.2990   -0.7500    0.0000 C   0  0
    0.0000   -1.5000    0.0000 C   0  0
   -1.2990   -0.7500    0.0000 C   0  0
   -1.2990    0.7500    0.0000 C   0  0
   -2.6003   -1.4978    0.0000 C   0  0
   -3.8990   -0.7455    0.0000 C   0  0  1  0  0  0
   -5.2526   -1.3618    0.0000 N   0  0
   -6.2524   -0.2436    0.0000 C   0  0
   -5.4979    1.0528    0.0000 C   0  0
   -4.0317    0.7358    0.0000 C   0  0
   -5.5609   -2.8279    0.0000 C   0  0
   -4.6672   -3.6287    0.0000 O   0  0
   -6.9870   -3.2957    0.0000 C   0  0
   -7.4287   -4.7158    0.0000 C   0  0
   -8.9287   -4.7169    0.0000 S   0  0
   -9.3933   -3.2906    0.0000 C   0  0
   -8.1804   -2.4081    0.0000 N   0  0
  -10.5348   -2.9206    0.0000 C   0  0
   -6.5386   -5.9241    0.0000 C   0  0
   -5.0446   -5.8755    0.0000 C   0  0
   -4.2536   -7.1500    0.0000 C   0  0
   -4.9618   -8.4722    0.0000 C   0  0
   -6.4610   -8.5201    0.0000 C   0  0
   -7.2520   -7.2456    0.0000 C   0  0
    1.2990    0.7500    0.0000 C   0  0
    0.0000    1.5000    0.0000 C   0  0
    2.5973   -1.5031    0.0000 O   0  0
    2.5956   -2.7031    0.0000 C   0  0
    2.5972    1.5031    0.0000 O   0  0
    2.5955    2.7031    0.0000 C   0  0
   -4.1729   -9.7491    0.0000 O   0  0
   -4.7410  -10.8061    0.0000 C   0  0
 25  1  1  0
  1  2  2  0
  2  3  1  0
  3  4  2  0
  4 26  1  0
  3  5  1  0
  6  5  1  1
  6  7  1  0
  7  8  1  0
  8  9  1  0
  9 10  1  0
 10  6  1  0
  7 11  1  0
 11 12  2  0
 11 13  1  0
 13 14  2  0
 14 15  1  0
 15 16  1  0
 16 17  2  0
 17 13  1  0
 16 18  1  0
 14 19  1  0
 19 20  2  0
 20 21  1  0
 21 22  2  0
 22 23  1  0
 23 24  2  0
 24 19  1  0
 25 26  2  0
  1 27  1  0
 27 28  1  0
 25 29  1  0
 29 30  1  0
 22 31  1  0
 31 32  1  0
M  END
> <chembl_id>
CHEMBL3740186

$$$$

  SciTegic12091613582D

 30 33  0  0  0  0            999 V2000
    4.1200    4.3600    0.0000 C   0  0
    3.6500    2.9355    0.0000 N   0  0
    4.6488    1.8163    0.0000 C   0  0
    6.1174    2.1217    0.0000 C   0  0
    5.5886    4.6654    0.0000 C   0  0
    6.5873    3.5462    0.0000 C   0  0
    3.1231    5.4819    0.0000 C   0  0
    3.5953    6.9065    0.0000 C   0  0
    2.6005    8.0293    0.0000 C   0  0
    3.0754    9.4521    0.0000 C   0  0
    4.5451    9.7523    0.0000 C   0  0
    5.5399    8.6296    0.0000 C   0  0
    5.0650    7.2068    0.0000 C   0  0
    7.0109    8.9270    0.0000 O   0  0
    7.8055    8.0277    0.0000 C   0  0
    5.0172   11.1769    0.0000 O   0  0
    4.2201   12.0739    0.0000 C   0  0
    2.1812    2.6271    0.0000 C   0  0
    1.3808    3.5211    0.0000 O   0  0
    1.7138    1.2033    0.0000 C   0  0
    1.7138   -1.2033    0.0000 N   0  0
    2.5889    0.0182    0.0000 C   0  0
    2.1855   -2.6254    0.0000 C   0  0
    3.3606   -2.8684    0.0000 C   0  0
    0.2917   -0.7475    0.0000 C   0  0
    0.2917    0.7475    0.0000 C   0  0
   -1.0028    1.5132    0.0000 C   0  0
   -2.3155    0.7475    0.0000 C   0  0
   -2.3155   -0.7475    0.0000 C   0  0
   -1.0028   -1.5132    0.0000 C   0  0
  6  4  1  0
  5  1  1  0
  1  2  1  0
  2  3  1  0
  3  4  1  0
  5  6  1  0
  1  7  1  0
  7  8  1  0
  8  9  2  0
  9 10  1  0
 10 11  2  0
 11 12  1  0
 12 13  2  0
 13  8  1  0
 12 14  1  0
 14 15  1  0
 11 16  1  0
 16 17  1  0
  2 18  1  0
 18 19  2  0
 18 20  1  0
 20 26  1  0
 25 21  1  0
 21 22  1  0
 22 20  2  0
 21 23  1  0
 23 24  1  0
 25 26  2  0
 26 27  1  0
 27 28  2  0
 28 29  1  0
 29 30  2  0
 30 25  1  0
M  END
> <chembl_id>
CHEMBL3739704

$$$$

  SciTegic12091613582D

 29 32  0  0  0  0            999 V2000
    1.2990   -0.7500    0.0000 C   0  0
    1.2990    0.7500    0.0000 C   0  0
    0.0000    1.5000    0.0000 C   0  0
   -1.2990    0.7500    0.0000 C   0  0
   -1.2990   -0.7500    0.0000 C   0  0
    0.0000   -1.5000    0.0000 C   0  0
   -0.0031    3.0008    0.0000 O   0  0
   -1.0432    3.5993    0.0000 C   0  0
    2.6003    1.4978    0.0000 O   0  0
    3.6387    0.8963    0.0000 C   0  0
   -2.5972   -1.5031    0.0000 C   0  0
   -2.5951   -3.0039    0.0000 C   0  0  1  0  0  0
   -3.8056   -3.8680    0.0000 N   0  0
   -3.3371   -5.2929    0.0000 C   0  0
   -1.8371   -5.2877    0.0000 C   0  0
   -1.3786   -3.8595    0.0000 C   0  0
   -5.2295   -3.4020    0.0000 C   0  0
   -5.4761   -2.2276    0.0000 O   0  0
   -6.3476   -4.4031    0.0000 C   0  0
   -7.7739   -3.9386    0.0000 C   0  0
   -8.8894   -4.9415    0.0000 C   0  0
   -8.5786   -6.4090    0.0000 C   0  0
   -7.1523   -6.8735    0.0000 C   0  0
   -6.0369   -5.8707    0.0000 C   0  0
   -8.0849   -2.4705    0.0000 N   0  0
   -7.0777   -1.3762    0.0000 N   0  0
   -7.8288   -0.0778    0.0000 C   0  0
   -9.2957   -0.3910    0.0000 C   0  0
   -9.4512   -1.8829    0.0000 N   0  0
  1  2  2  0
  2  3  1  0
  3  4  2  0
  4  5  1  0
  5  6  2  0
  6  1  1  0
  3  7  1  0
  7  8  1  0
  2  9  1  0
  9 10  1  0
  5 11  1  0
 12 11  1  6
 12 13  1  0
 13 14  1  0
 14 15  1  0
 15 16  1  0
 16 12  1  0
 13 17  1  0
 17 18  2  0
 17 19  1  0
 19 20  2  0
 20 21  1  0
 21 22  2  0
 22 23  1  0
 23 24  2  0
 24 19  1  0
 20 25  1  0
 25 26  1  0
 26 27  2  0
 27 28  1  0
 28 29  2  0
 29 25  1  0
M  END
> <chembl_id>
CHEMBL3739682

$$$$

  SciTegic12091613592D

 31 34  0  0  0  0            999 V2000
    1.2990   -0.7500    0.0000 C   0  0
    0.0000   -1.5000    0.0000 C   0  0
   -1.2990   -0.7500    0.0000 C   0  0
   -1.2990    0.7500    0.0000 C   0  0
   -2.6003   -1.4978    0.0000 C   0  0
   -3.8990   -0.7455    0.0000 C   0  0  1  0  0  0
   -5.2526   -1.3618    0.0000 N   0  0
   -6.2524   -0.2436    0.0000 C   0  0
   -5.4979    1.0528    0.0000 C   0  0
   -4.0317    0.7358    0.0000 C   0  0
   -5.5609   -2.8279    0.0000 C   0  0
   -4.6672   -3.6287    0.0000 O   0  0
   -6.9870   -3.2957    0.0000 C   0  0
   -7.4287   -4.7158    0.0000 C   0  0
   -8.9287   -4.7169    0.0000 S   0  0
   -9.3933   -3.2906    0.0000 C   0  0
   -8.1804   -2.4081    0.0000 N   0  0
  -10.5348   -2.9206    0.0000 C   0  0
   -6.5386   -5.9241    0.0000 C   0  0
   -5.0446   -5.8755    0.0000 C   0  0
   -4.2536   -7.1500    0.0000 C   0  0
   -4.9618   -8.4722    0.0000 C   0  0
   -6.4610   -8.5201    0.0000 C   0  0
   -7.2520   -7.2456    0.0000 C   0  0
    1.2990    0.7500    0.0000 C   0  0
    0.0000    1.5000    0.0000 C   0  0
    2.5973   -1.5031    0.0000 O   0  0
    2.5956   -2.7031    0.0000 C   0  0
    2.5972    1.5031    0.0000 O   0  0
    2.5955    2.7031    0.0000 C   0  0
   -4.3290   -9.4918    0.0000 F   0  0
 25  1  1  0
  1  2  2  0
  2  3  1  0
  3  4  2  0
  4 26  1  0
  3  5  1  0
  6  5  1  1
  6  7  1  0
  7  8  1  0
  8  9  1  0
  9 10  1  0
 10  6  1  0
  7 11  1  0
 11 12  2  0
 11 13  1  0
 13 14  2  0
 14 15  1  0
 15 16  1  0
 16 17  2  0
 17 13  1  0
 16 18  1  0
 14 19  1  0
 19 20  2  0
 20 21  1  0
 21 22  2  0
 22 23  1  0
 23 24  2  0
 24 19  1  0
 25 26  2  0
  1 27  1  0
 27 28  1  0
 25 29  1  0
 29 30  1  0
 22 31  1  0
M  END
> <chembl_id>
CHEMBL3740088

$$$$

  SciTegic12091613582D

 31 34  0  0  0  0            999 V2000
    1.2990   -0.7500    0.0000 C   0  0
    0.0000   -1.5000    0.0000 C   0  0
   -1.2990   -0.7500    0.0000 C   0  0
   -1.2990    0.7500    0.0000 C   0  0
   -2.6003   -1.4978    0.0000 C   0  0
   -3.8990   -0.7455    0.0000 C   0  0  1  0  0  0
   -5.2526   -1.3618    0.0000 N   0  0
   -6.2524   -0.2436    0.0000 C   0  0
   -5.4979    1.0528    0.0000 C   0  0
   -4.0317    0.7358    0.0000 C   0  0
   -5.5609   -2.8279    0.0000 C   0  0
   -4.6672   -3.6287    0.0000 O   0  0
   -6.9870   -3.2957    0.0000 C   0  0
   -7.4287   -4.7158    0.0000 C   0  0
   -8.9287   -4.7169    0.0000 S   0  0
   -9.3933   -3.2906    0.0000 C   0  0
   -8.1804   -2.4081    0.0000 N   0  0
  -10.5348   -2.9206    0.0000 C   0  0
   -6.5386   -5.9241    0.0000 C   0  0
   -5.0446   -5.8755    0.0000 C   0  0
   -4.2536   -7.1500    0.0000 C   0  0
   -4.9618   -8.4722    0.0000 C   0  0
   -6.4610   -8.5201    0.0000 C   0  0
   -7.2520   -7.2456    0.0000 C   0  0
   -3.0542   -7.1117    0.0000 C   0  0
    1.2990    0.7500    0.0000 C   0  0
    0.0000    1.5000    0.0000 C   0  0
    0.0031    3.0008    0.0000 O   0  0
    1.0432    3.5994    0.0000 C   0  0
    2.5973   -1.5031    0.0000 O   0  0
    2.5956   -2.7031    0.0000 C   0  0
 26  1  1  0
  1  2  2  0
  2  3  1  0
  3  4  2  0
  4 27  1  0
  3  5  1  0
  6  5  1  1
  6  7  1  0
  7  8  1  0
  8  9  1  0
  9 10  1  0
 10  6  1  0
  7 11  1  0
 11 12  2  0
 11 13  1  0
 13 14  2  0
 14 15  1  0
 15 16  1  0
 16 17  2  0
 17 13  1  0
 16 18  1  0
 14 19  1  0
 19 20  2  0
 20 21  1  0
 21 22  2  0
 22 23  1  0
 23 24  2  0
 24 19  1  0
 21 25  1  0
 26 27  2  0
 27 28  1  0
 28 29  1  0
  1 30  1  0
 30 31  1  0
M  END
> <chembl_id>
CHEMBL3742235

$$$$

  SciTegic12091613582D

 30 33  0  0  0  0            999 V2000
    1.2990   -0.7500    0.0000 C   0  0
    0.0000   -1.5000    0.0000 N   0  0
   -1.2990   -0.7500    0.0000 C   0  0
   -1.2990    0.7500    0.0000 C   0  0
    1.2990    0.7500    0.0000 C   0  0
    0.0000    1.5000    0.0000 C   0  0
    2.6003   -1.4977    0.0000 C   0  0
    3.8990   -0.7455    0.0000 C   0  0
    5.2003   -1.4932    0.0000 C   0  0
   -0.0031   -3.0008    0.0000 C   0  0
    1.0351   -3.6026    0.0000 O   0  0
   -1.3039   -3.7494    0.0000 C   0  0
   -1.3092   -5.2494    0.0000 C   0  0
   -2.6108   -5.9949    0.0000 C   0  0
   -3.9072   -5.2404    0.0000 C   0  0
   -3.9020   -3.7404    0.0000 C   0  0
   -2.6004   -2.9949    0.0000 C   0  0
   -4.9392   -3.1369    0.0000 C   0  0
   -0.0121   -6.0043    0.0000 N   0  0
    1.3424   -5.3901    0.0000 N   0  0
    2.3405   -6.5099    0.0000 C   0  0
    1.5839   -7.8051    0.0000 C   0  0
    0.1183   -7.4859    0.0000 N   0  0
    6.4994   -0.7432    0.0000 C   0  0
    7.7985   -1.4932    0.0000 C   0  0
    7.7985   -2.9932    0.0000 C   0  0
    6.4995   -3.7432    0.0000 C   0  0
    5.2004   -2.9933    0.0000 C   0  0
    6.4964   -5.2441    0.0000 O   0  0
    5.4564   -5.8426    0.0000 C   0  0
  6  4  1  0
  5  1  1  0
  1  2  1  0
  2  3  1  0
  3  4  1  0
  5  6  1  0
  1  7  1  0
  7  8  1  0
  9  8  1  0
  2 10  1  0
 10 11  2  0
 10 12  1  0
 12 13  2  0
 13 14  1  0
 14 15  2  0
 15 16  1  0
 16 17  2  0
 17 12  1  0
 16 18  1  0
 13 19  1  0
 19 20  1  0
 20 21  2  0
 21 22  1  0
 22 23  2  0
 23 19  1  0
  9 24  2  0
 24 25  1  0
 25 26  2  0
 26 27  1  0
 27 28  2  0
 28  9  1  0
 27 29  1  0
 29 30  1  0
M  END
> <chembl_id>
CHEMBL3740505

$$$$

  SciTegic12091613582D

 30 33  0  0  0  0            999 V2000
    1.2990   -0.7500    0.0000 C   0  0
    1.2990    0.7500    0.0000 C   0  0
    0.0000    1.5000    0.0000 C   0  0
   -1.2990    0.7500    0.0000 C   0  0
   -1.2990   -0.7500    0.0000 C   0  0
    0.0000   -1.5000    0.0000 C   0  0
   -0.0031    3.0008    0.0000 O   0  0
   -1.0432    3.5993    0.0000 C   0  0
    2.6003    1.4978    0.0000 O   0  0
    3.6387    0.8963    0.0000 C   0  0
   -2.5972   -1.5031    0.0000 C   0  0
   -2.5951   -3.0039    0.0000 C   0  0  1  0  0  0
   -3.8056   -3.8680    0.0000 N   0  0
   -3.3371   -5.2929    0.0000 C   0  0
   -1.8371   -5.2877    0.0000 C   0  0
   -1.3786   -3.8595    0.0000 C   0  0
   -5.2295   -3.4020    0.0000 C   0  0
   -5.4761   -2.2276    0.0000 O   0  0
   -6.3476   -4.4031    0.0000 C   0  0
   -7.7739   -3.9386    0.0000 C   0  0
   -8.8894   -4.9415    0.0000 C   0  0
   -8.5786   -6.4090    0.0000 C   0  0
   -7.1523   -6.8735    0.0000 C   0  0
   -6.0369   -5.8707    0.0000 C   0  0
   -8.0849   -2.4705    0.0000 C   0  0
   -7.0777   -1.3762    0.0000 N   0  0
   -7.8288   -0.0778    0.0000 C   0  0
   -9.2957   -0.3910    0.0000 N   0  0
   -9.4512   -1.8829    0.0000 O   0  0
   -7.3417    1.0188    0.0000 C   0  0
  1  2  2  0
  2  3  1  0
  3  4  2  0
  4  5  1  0
  5  6  2  0
  6  1  1  0
  3  7  1  0
  7  8  1  0
  2  9  1  0
  9 10  1  0
  5 11  1  0
 12 11  1  6
 12 13  1  0
 13 14  1  0
 14 15  1  0
 15 16  1  0
 16 12  1  0
 13 17  1  0
 17 18  2  0
 17 19  1  0
 19 20  2  0
 20 21  1  0
 21 22  2  0
 22 23  1  0
 23 24  2  0
 24 19  1  0
 25 26  2  0
 26 27  1  0
 27 28  2  0
 28 29  1  0
 29 25  1  0
 20 25  1  0
 27 30  1  0
M  END
> <chembl_id>
CHEMBL3739613

$$$$

  SciTegic12091613582D

 29 32  0  0  0  0            999 V2000
    1.2990   -0.7500    0.0000 C   0  0
    0.0000   -1.5000    0.0000 C   0  0
   -1.2990   -0.7500    0.0000 C   0  0
   -1.2990    0.7500    0.0000 C   0  0
   -2.6003   -1.4978    0.0000 C   0  0
   -3.8990   -0.7455    0.0000 C   0  0  1  0  0  0
   -5.2526   -1.3618    0.0000 N   0  0
   -6.2524   -0.2436    0.0000 C   0  0
   -5.4979    1.0528    0.0000 C   0  0
   -4.0317    0.7358    0.0000 C   0  0
   -5.5609   -2.8279    0.0000 C   0  0
   -4.6672   -3.6287    0.0000 O   0  0
   -6.9870   -3.2957    0.0000 C   0  0
   -7.4287   -4.7158    0.0000 C   0  0
   -8.9287   -4.7169    0.0000 S   0  0
   -9.3933   -3.2906    0.0000 C   0  0
   -8.1804   -2.4081    0.0000 N   0  0
  -10.5348   -2.9206    0.0000 C   0  0
   -6.5386   -5.9241    0.0000 C   0  0
   -5.0446   -5.8755    0.0000 C   0  0
   -4.2536   -7.1500    0.0000 C   0  0
   -4.9618   -8.4722    0.0000 C   0  0
   -6.4610   -8.5201    0.0000 C   0  0
   -7.2520   -7.2456    0.0000 C   0  0
   -3.0542   -7.1117    0.0000 C   0  0
    1.2990    0.7500    0.0000 C   0  0
    0.0000    1.5000    0.0000 C   0  0
    2.3383   -1.3500    0.0000 Cl  0  0
    2.3383    1.3500    0.0000 C   0  0
 26  1  1  0
  1  2  2  0
  2  3  1  0
  3  4  2  0
  4 27  1  0
  3  5  1  0
  6  5  1  1
  6  7  1  0
  7  8  1  0
  8  9  1  0
  9 10  1  0
 10  6  1  0
  7 11  1  0
 11 12  2  0
 11 13  1  0
 13 14  2  0
 14 15  1  0
 15 16  1  0
 16 17  2  0
 17 13  1  0
 16 18  1  0
 14 19  1  0
 19 20  2  0
 20 21  1  0
 21 22  2  0
 22 23  1  0
 23 24  2  0
 24 19  1  0
 21 25  1  0
 26 27  2  0
  1 28  1  0
 26 29  1  0
M  END
> <chembl_id>
CHEMBL3739577

$$$$

  SciTegic12091613592D

 32 35  0  0  0  0            999 V2000
    1.2990   -0.7500    0.0000 C   0  0
    0.0000   -1.5000    0.0000 C   0  0
   -1.2990   -0.7500    0.0000 C   0  0
   -1.2990    0.7500    0.0000 C   0  0
   -2.6003   -1.4978    0.0000 C   0  0
   -3.8990   -0.7455    0.0000 C   0  0  1  0  0  0
   -5.2526   -1.3618    0.0000 N   0  0
   -6.2524   -0.2436    0.0000 C   0  0
   -5.4979    1.0528    0.0000 C   0  0
   -4.0317    0.7358    0.0000 C   0  0
   -5.5609   -2.8279    0.0000 C   0  0
   -4.6672   -3.6287    0.0000 O   0  0
   -6.9870   -3.2957    0.0000 C   0  0
   -7.4287   -4.7158    0.0000 C   0  0
   -8.9287   -4.7169    0.0000 S   0  0
   -9.3933   -3.2906    0.0000 C   0  0
   -8.1804   -2.4081    0.0000 N   0  0
  -10.5348   -2.9206    0.0000 C   0  0
   -6.5386   -5.9241    0.0000 C   0  0
   -5.0446   -5.8755    0.0000 C   0  0
   -4.2536   -7.1500    0.0000 C   0  0
   -4.9618   -8.4722    0.0000 C   0  0
   -6.4610   -8.5201    0.0000 C   0  0
   -7.2520   -7.2456    0.0000 C   0  0
    1.2990    0.7500    0.0000 C   0  0
    0.0000    1.5000    0.0000 C   0  0
    2.5973   -1.5031    0.0000 O   0  0
    2.5956   -2.7031    0.0000 C   0  0
    2.5972    1.5031    0.0000 O   0  0
    2.5955    2.7031    0.0000 C   0  0
   -7.1723   -9.8416    0.0000 O   0  0
   -8.3718   -9.8782    0.0000 C   0  0
 25  1  1  0
  1  2  2  0
  2  3  1  0
  3  4  2  0
  4 26  1  0
  3  5  1  0
  6  5  1  1
  6  7  1  0
  7  8  1  0
  8  9  1  0
  9 10  1  0
 10  6  1  0
  7 11  1  0
 11 12  2  0
 11 13  1  0
 13 14  2  0
 14 15  1  0
 15 16  1  0
 16 17  2  0
 17 13  1  0
 16 18  1  0
 14 19  1  0
 19 20  2  0
 20 21  1  0
 21 22  2  0
 22 23  1  0
 23 24  2  0
 24 19  1  0
 25 26  2  0
  1 27  1  0
 27 28  1  0
 25 29  1  0
 29 30  1  0
 23 31  1  0
 31 32  1  0
M  END
> <chembl_id>
CHEMBL3739958

$$$$

  SciTegic12091613582D

 30 33  0  0  0  0            999 V2000
    1.2990   -0.7500    0.0000 C   0  0
    0.0000   -1.5000    0.0000 C   0  0
   -1.2990   -0.7500    0.0000 C   0  0
   -1.2990    0.7500    0.0000 C   0  0
   -2.5972   -1.5031    0.0000 C   0  0
   -2.5951   -3.0039    0.0000 C   0  0  1  0  0  0
   -3.8056   -3.8680    0.0000 N   0  0
   -3.3371   -5.2929    0.0000 C   0  0
   -1.8371   -5.2877    0.0000 C   0  0
   -1.3786   -3.8595    0.0000 C   0  0
   -5.2295   -3.4020    0.0000 C   0  0
   -5.4761   -2.2276    0.0000 O   0  0
   -6.3476   -4.4031    0.0000 C   0  0
   -7.7984   -4.0756    0.0000 C   0  0
   -8.5493   -5.3741    0.0000 S   0  0
   -7.5464   -6.4896    0.0000 C   0  0
   -6.1756   -5.8804    0.0000 N   0  0
   -7.7967   -7.6632    0.0000 C   0  0
   -8.3997   -2.7006    0.0000 C   0  0
   -7.6106   -1.4311    0.0000 C   0  0
   -8.3188   -0.1088    0.0000 C   0  0
   -9.8181   -0.0610    0.0000 C   0  0
  -10.6091   -1.3355    0.0000 C   0  0
   -9.9009   -2.6577    0.0000 C   0  0
   -7.6860    0.9108    0.0000 C   0  0
    1.2990    0.7500    0.0000 C   0  0
    0.0000    1.5000    0.0000 C   0  0
    2.5973   -1.5031    0.0000 O   0  0
    2.5956   -2.7031    0.0000 C   0  0
   -2.3383    1.3500    0.0000 Cl  0  0
 26  1  1  0
  1  2  2  0
  2  3  1  0
  3  4  2  0
  4 27  1  0
  3  5  1  0
  6  5  1  6
  6  7  1  0
  7  8  1  0
  8  9  1  0
  9 10  1  0
 10  6  1  0
  7 11  1  0
 11 12  2  0
 11 13  1  0
 13 14  2  0
 14 15  1  0
 15 16  1  0
 16 17  2  0
 17 13  1  0
 16 18  1  0
 14 19  1  0
 19 20  2  0
 20 21  1  0
 21 22  2  0
 22 23  1  0
 23 24  2  0
 24 19  1  0
 21 25  1  0
 26 27  2  0
  1 28  1  0
 28 29  1  0
  4 30  1  0
M  END
> <chembl_id>
CHEMBL3740773

$$$$

  SciTegic12091613582D

 32 35  0  0  0  0            999 V2000
    1.2990   -0.7500    0.0000 C   0  0
    0.0000   -1.5000    0.0000 N   0  0
   -1.2990   -0.7500    0.0000 C   0  0
   -1.2990    0.7500    0.0000 C   0  0
    1.2990    0.7500    0.0000 C   0  0
    0.0000    1.5000    0.0000 C   0  0
    2.6003   -1.4977    0.0000 C   0  0
    3.8990   -0.7455    0.0000 C   0  0
    5.2003   -1.4932    0.0000 C   0  0
   -0.0031   -3.0008    0.0000 C   0  0
    1.0351   -3.6026    0.0000 O   0  0
   -1.3039   -3.7494    0.0000 C   0  0
   -1.3092   -5.2494    0.0000 C   0  0
   -2.6108   -5.9949    0.0000 C   0  0
   -3.9072   -5.2404    0.0000 C   0  0
   -3.9020   -3.7404    0.0000 C   0  0
   -2.6004   -2.9949    0.0000 C   0  0
   -4.9392   -3.1369    0.0000 C   0  0
   -0.0121   -6.0043    0.0000 N   0  0
    1.3424   -5.3901    0.0000 N   0  0
    2.3405   -6.5099    0.0000 C   0  0
    1.5839   -7.8051    0.0000 C   0  0
    0.1183   -7.4859    0.0000 N   0  0
    6.4994   -0.7432    0.0000 C   0  0
    7.7985   -1.4932    0.0000 C   0  0
    7.7985   -2.9932    0.0000 C   0  0
    6.4995   -3.7432    0.0000 C   0  0
    5.2004   -2.9933    0.0000 C   0  0
    6.4964   -5.2441    0.0000 O   0  0
    5.4564   -5.8426    0.0000 C   0  0
    9.0998   -3.7409    0.0000 O   0  0
   10.1382   -3.1394    0.0000 C   0  0
  6  4  1  0
  5  1  1  0
  1  2  1  0
  2  3  1  0
  3  4  1  0
  5  6  1  0
  1  7  1  0
  7  8  1  0
  9  8  1  0
  2 10  1  0
 10 11  2  0
 10 12  1  0
 12 13  2  0
 13 14  1  0
 14 15  2  0
 15 16  1  0
 16 17  2  0
 17 12  1  0
 16 18  1  0
 13 19  1  0
 19 20  1  0
 20 21  2  0
 21 22  1  0
 22 23  2  0
 23 19  1  0
  9 24  2  0
 24 25  1  0
 25 26  2  0
 26 27  1  0
 27 28  2  0
 28  9  1  0
 27 29  1  0
 29 30  1  0
 26 31  1  0
 31 32  1  0
M  END
> <chembl_id>
CHEMBL3742247

$$$$

  SciTegic12091613582D

 34 38  0  0  0  0            999 V2000
   -1.0028    1.5132    0.0000 C   0  0
   -2.3155    0.7475    0.0000 N   0  0
   -2.3155   -0.7475    0.0000 C   0  0
   -1.0028   -1.5132    0.0000 C   0  0
    0.2917    0.7475    0.0000 C   0  0
    0.2917   -0.7475    0.0000 C   0  0
    1.7138   -1.2033    0.0000 C   0  0
    2.5889    0.0182    0.0000 C   0  0
    1.7138    1.2033    0.0000 S   0  0
   -0.9971    3.0138    0.0000 C   0  0
    0.3049    3.7602    0.0000 C   0  0
    0.3127    5.2602    0.0000 C   0  0
    1.6156    6.0035    0.0000 C   0  0
    2.9108    5.2468    0.0000 C   0  0
    2.9031    3.7469    0.0000 C   0  0
    1.6002    3.0036    0.0000 C   0  0
    4.1974    2.9871    0.0000 O   0  0
    4.1908    1.9871    0.0000 C   0  0
    4.2128    5.9933    0.0000 O   0  0
    4.2173    7.1932    0.0000 C   0  0
   -3.6217    1.4865    0.0000 C   0  0
   -3.6302    2.4865    0.0000 O   0  0
   -4.9153    0.7255    0.0000 C   0  0
   -6.2219    1.4621    0.0000 C   0  0
   -7.5133    0.6990    0.0000 C   0  0
   -7.4980   -0.8010    0.0000 C   0  0
   -6.1914   -1.5377    0.0000 C   0  0
   -4.9001   -0.7745    0.0000 C   0  0
   -6.1792   -2.7376    0.0000 C   0  0
   -6.2373    2.9628    0.0000 N   0  0
   -5.0339    3.8369    0.0000 N   0  0
   -5.5142    5.2579    0.0000 C   0  0
   -7.0141    5.2403    0.0000 C   0  0
   -7.4608    3.8083    0.0000 N   0  0
  6  4  1  0
  5  1  1  0
  1  2  1  0
  2  3  1  0
  3  4  1  0
  5  6  2  0
  6  7  1  0
  7  8  2  0
  8  9  1  0
  9  5  1  0
  1 10  1  0
 10 11  1  0
 11 12  2  0
 12 13  1  0
 13 14  2  0
 14 15  1  0
 15 16  2  0
 16 11  1  0
 15 17  1  0
 17 18  1  0
 14 19  1  0
 19 20  1  0
  2 21  1  0
 21 22  2  0
 21 23  1  0
 23 24  2  0
 24 25  1  0
 25 26  2  0
 26 27  1  0
 27 28  2  0
 28 23  1  0
 27 29  1  0
 24 30  1  0
 30 31  1  0
 31 32  2  0
 32 33  1  0
 33 34  2  0
 34 30  1  0
M  END
> <chembl_id>
CHEMBL3741221

$$$$

  SciTegic12091613582D

 30 33  0  0  0  0            999 V2000
    1.2990   -0.7500    0.0000 C   0  0
    1.2990    0.7500    0.0000 C   0  0
    0.0000    1.5000    0.0000 C   0  0
   -1.2990    0.7500    0.0000 C   0  0
   -1.2990   -0.7500    0.0000 C   0  0
    0.0000   -1.5000    0.0000 C   0  0
   -0.0031    3.0008    0.0000 O   0  0
   -1.0432    3.5993    0.0000 C   0  0
    2.6003    1.4978    0.0000 O   0  0
    3.6387    0.8963    0.0000 C   0  0
   -2.5972   -1.5031    0.0000 C   0  0
   -2.5951   -3.0039    0.0000 C   0  0  1  0  0  0
   -3.8056   -3.8680    0.0000 N   0  0
   -3.3371   -5.2929    0.0000 C   0  0
   -1.8371   -5.2877    0.0000 C   0  0
   -1.3786   -3.8595    0.0000 C   0  0
   -5.2295   -3.4020    0.0000 C   0  0
   -5.4761   -2.2276    0.0000 O   0  0
   -6.3476   -4.4031    0.0000 C   0  0
   -7.7739   -3.9386    0.0000 C   0  0
   -8.8894   -4.9415    0.0000 C   0  0
   -8.5786   -6.4090    0.0000 C   0  0
   -7.1523   -6.8735    0.0000 C   0  0
   -6.0369   -5.8707    0.0000 C   0  0
   -8.0849   -2.4705    0.0000 N   0  0
   -6.9037   -8.0475    0.0000 C   0  0
   -7.0777   -1.3762    0.0000 N   0  0
   -7.8288   -0.0778    0.0000 C   0  0
   -9.2957   -0.3910    0.0000 C   0  0
   -9.4512   -1.8829    0.0000 C   0  0
  1  2  2  0
  2  3  1  0
  3  4  2  0
  4  5  1  0
  5  6  2  0
  6  1  1  0
  3  7  1  0
  7  8  1  0
  2  9  1  0
  9 10  1  0
  5 11  1  0
 12 11  1  6
 12 13  1  0
 13 14  1  0
 14 15  1  0
 15 16  1  0
 16 12  1  0
 13 17  1  0
 17 18  2  0
 17 19  1  0
 19 20  2  0
 20 21  1  0
 21 22  2  0
 22 23  1  0
 23 24  2  0
 24 19  1  0
 20 25  1  0
 23 26  1  0
 25 27  1  0
 27 28  2  0
 28 29  1  0
 29 30  2  0
 30 25  1  0
M  END
> <chembl_id>
CHEMBL3740565

$$$$

  SciTegic12091613582D

 31 34  0  0  0  0            999 V2000
    1.2990   -0.7500    0.0000 C   0  0
    1.2990    0.7500    0.0000 C   0  0
    0.0000    1.5000    0.0000 C   0  0
   -1.2990    0.7500    0.0000 C   0  0
   -1.2990   -0.7500    0.0000 C   0  0
    0.0000   -1.5000    0.0000 C   0  0
   -0.0031    3.0008    0.0000 O   0  0
   -1.0432    3.5993    0.0000 C   0  0
    2.6003    1.4978    0.0000 O   0  0
    3.6387    0.8963    0.0000 C   0  0
   -2.5972   -1.5031    0.0000 C   0  0
   -2.5951   -3.0039    0.0000 C   0  0  1  0  0  0
   -3.8056   -3.8680    0.0000 N   0  0
   -3.3371   -5.2929    0.0000 C   0  0
   -1.8371   -5.2877    0.0000 C   0  0
   -1.3786   -3.8595    0.0000 C   0  0
   -5.2295   -3.4020    0.0000 C   0  0
   -5.4761   -2.2276    0.0000 O   0  0
   -6.3476   -4.4031    0.0000 C   0  0
   -7.7739   -3.9386    0.0000 C   0  0
   -8.8894   -4.9415    0.0000 C   0  0
   -8.5786   -6.4090    0.0000 C   0  0
   -7.1523   -6.8735    0.0000 C   0  0
   -6.0369   -5.8707    0.0000 N   0  0
   -8.0849   -2.4705    0.0000 C   0  0
   -6.9711   -1.4657    0.0000 N   0  0
   -7.2843    0.0013    0.0000 C   0  0
   -8.7113    0.4635    0.0000 C   0  0
   -9.8251   -0.5411    0.0000 C   0  0
   -9.5119   -2.0081    0.0000 N   0  0
   -6.9037   -8.0475    0.0000 C   0  0
  1  2  2  0
  2  3  1  0
  3  4  2  0
  4  5  1  0
  5  6  2  0
  6  1  1  0
  3  7  1  0
  7  8  1  0
  2  9  1  0
  9 10  1  0
  5 11  1  0
 12 11  1  6
 12 13  1  0
 13 14  1  0
 14 15  1  0
 15 16  1  0
 16 12  1  0
 13 17  1  0
 17 18  2  0
 17 19  1  0
 19 20  2  0
 20 21  1  0
 21 22  2  0
 22 23  1  0
 23 24  2  0
 24 19  1  0
 25 26  2  0
 26 27  1  0
 27 28  2  0
 28 29  1  0
 29 30  2  0
 30 25  1  0
 20 25  1  0
 23 31  1  0
M  END
> <chembl_id>
CHEMBL3740670

$$$$

  SciTegic12091613582D

 33 37  0  0  0  0            999 V2000
   -1.0028    1.5132    0.0000 C   0  0
   -2.3155    0.7475    0.0000 N   0  0
   -2.3155   -0.7475    0.0000 C   0  0
   -1.0028   -1.5132    0.0000 C   0  0
    0.2917    0.7475    0.0000 C   0  0
    0.2917   -0.7475    0.0000 C   0  0
    1.7138   -1.2033    0.0000 C   0  0
    2.5889    0.0182    0.0000 C   0  0
    1.7138    1.2033    0.0000 S   0  0
   -0.9971    3.0138    0.0000 C   0  0
    0.3049    3.7602    0.0000 C   0  0
    0.3127    5.2602    0.0000 C   0  0
    1.6156    6.0035    0.0000 C   0  0
    2.9108    5.2468    0.0000 C   0  0
    2.9031    3.7469    0.0000 C   0  0
    1.6002    3.0036    0.0000 C   0  0
    4.1974    2.9871    0.0000 O   0  0
    4.1908    1.9871    0.0000 C   0  0
    4.2128    5.9933    0.0000 O   0  0
    4.2173    7.1932    0.0000 C   0  0
   -3.6217    1.4865    0.0000 C   0  0
   -3.6302    2.4865    0.0000 O   0  0
   -4.9153    0.7255    0.0000 C   0  0
   -6.4906   -1.0704    0.0000 N   0  0
   -5.0262   -0.7334    0.0000 C   0  0
   -7.0777   -2.4488    0.0000 C   0  0
   -6.3574   -3.4086    0.0000 C   0  0
   -7.2553    0.2123    0.0000 C   0  0
   -6.2662    1.3333    0.0000 C   0  0
   -6.7302    2.7639    0.0000 C   0  0
   -8.2212    3.0582    0.0000 C   0  0
   -9.2103    1.9372    0.0000 C   0  0
   -8.7326    0.4945    0.0000 C   0  0
  6  4  1  0
  5  1  1  0
  1  2  1  0
  2  3  1  0
  3  4  1  0
  5  6  2  0
  6  7  1  0
  7  8  2  0
  8  9  1  0
  9  5  1  0
  1 10  1  0
 10 11  1  0
 11 12  2  0
 12 13  1  0
 13 14  2  0
 14 15  1  0
 15 16  2  0
 16 11  1  0
 15 17  1  0
 17 18  1  0
 14 19  1  0
 19 20  1  0
  2 21  1  0
 21 22  2  0
 21 23  1  0
 23 29  1  0
 28 24  1  0
 24 25  1  0
 25 23  2  0
 24 26  1  0
 26 27  1  0
 28 29  2  0
 29 30  1  0
 30 31  2  0
 31 32  1  0
 32 33  2  0
 33 28  1  0
M  END
> <chembl_id>
CHEMBL3742341

$$$$

  SciTegic12091613592D

 33 37  0  0  0  0            999 V2000
   -6.5225   -7.6566    0.0000 C   0  0
   -5.9271   -6.2799    0.0000 C   0  0
   -6.8216   -5.0757    0.0000 C   0  0
   -8.3117   -5.2485    0.0000 C   0  0
   -6.2286   -3.6970    0.0000 C   0  0
   -7.1238   -2.4956    0.0000 C   0  0  1  0  0  0
   -6.6902   -1.0730    0.0000 N   0  0
   -7.8887   -0.1923    0.0000 C   0  0
   -9.0965   -1.0818    0.0000 C   0  0
   -8.6238   -2.5053    0.0000 C   0  0
   -5.2669   -0.5970    0.0000 C   0  0
   -4.3685   -1.3926    0.0000 O   0  0
   -4.9669    0.8708    0.0000 C   0  0
   -3.6168    1.4950    0.0000 C   0  0
   -3.7582    2.9755    0.0000 S   0  0
   -5.2262    3.2840    0.0000 C   0  0
   -5.9732    1.9832    0.0000 N   0  0
   -5.7168    4.3791    0.0000 C   0  0
   -2.3155    0.7475    0.0000 C   0  0
   -1.0028    1.5132    0.0000 C   0  0
   -1.0028   -1.5132    0.0000 C   0  0
   -2.3155   -0.7475    0.0000 C   0  0
   -8.0125   -7.8293    0.0000 C   0  0
   -8.9071   -6.6253    0.0000 C   0  0
   -5.6250   -8.8595    0.0000 O   0  0
   -4.4331   -8.7196    0.0000 C   0  0
   -8.6112   -9.2056    0.0000 O   0  0
   -9.8034   -9.3420    0.0000 C   0  0
    0.2917   -0.7475    0.0000 C   0  0
    0.2917    0.7475    0.0000 C   0  0
    1.7138    1.2033    0.0000 C   0  0
    2.5889    0.0182    0.0000 C   0  0
    1.7138   -1.2033    0.0000 O   0  0
 23  1  1  0
  1  2  2  0
  2  3  1  0
  3  4  2  0
  4 24  1  0
  3  5  1  0
  6  5  1  6
  6  7  1  0
  7  8  1  0
  8  9  1  0
  9 10  1  0
 10  6  1  0
  7 11  1  0
 11 12  2  0
 11 13  1  0
 13 14  2  0
 14 15  1  0
 15 16  1  0
 16 17  2  0
 17 13  1  0
 16 18  1  0
 14 19  1  0
 19 20  2  0
 20 30  1  0
 29 21  1  0
 21 22  2  0
 22 19  1  0
 23 24  2  0
  1 25  1  0
 25 26  1  0
 23 27  1  0
 27 28  1  0
 29 30  2  0
 30 31  1  0
 31 32  1  0
 32 33  1  0
 33 29  1  0
M  END
> <chembl_id>
CHEMBL3742040

$$$$

  SciTegic12091613582D

 30 33  0  0  0  0            999 V2000
    1.2990   -0.7500    0.0000 C   0  0
    1.2990    0.7500    0.0000 C   0  0
    0.0000    1.5000    0.0000 C   0  0
   -1.2990    0.7500    0.0000 C   0  0
   -1.2990   -0.7500    0.0000 C   0  0
    0.0000   -1.5000    0.0000 C   0  0
   -0.0031    3.0008    0.0000 O   0  0
   -1.0432    3.5993    0.0000 C   0  0
    2.6003    1.4978    0.0000 O   0  0
    3.6387    0.8963    0.0000 C   0  0
   -2.5972   -1.5031    0.0000 C   0  0
   -2.5951   -3.0039    0.0000 C   0  0  1  0  0  0
   -3.8056   -3.8680    0.0000 N   0  0
   -3.3371   -5.2929    0.0000 C   0  0
   -1.8371   -5.2877    0.0000 C   0  0
   -1.3786   -3.8595    0.0000 C   0  0
   -5.2295   -3.4020    0.0000 C   0  0
   -5.4761   -2.2276    0.0000 O   0  0
   -6.3476   -4.4031    0.0000 C   0  0
   -7.7739   -3.9386    0.0000 C   0  0
   -8.8894   -4.9415    0.0000 C   0  0
   -8.5786   -6.4090    0.0000 C   0  0
   -7.1523   -6.8735    0.0000 C   0  0
   -6.0369   -5.8707    0.0000 C   0  0
   -8.0849   -2.4705    0.0000 C   0  0
   -6.9711   -1.4657    0.0000 N   0  0
   -7.2843    0.0013    0.0000 C   0  0
   -8.7113    0.4635    0.0000 C   0  0
   -9.8251   -0.5411    0.0000 C   0  0
   -9.5119   -2.0081    0.0000 N   0  0
  1  2  2  0
  2  3  1  0
  3  4  2  0
  4  5  1  0
  5  6  2  0
  6  1  1  0
  3  7  1  0
  7  8  1  0
  2  9  1  0
  9 10  1  0
  5 11  1  0
 12 11  1  6
 12 13  1  0
 13 14  1  0
 14 15  1  0
 15 16  1  0
 16 12  1  0
 13 17  1  0
 17 18  2  0
 17 19  1  0
 19 20  2  0
 20 21  1  0
 21 22  2  0
 22 23  1  0
 23 24  2  0
 24 19  1  0
 25 26  2  0
 26 27  1  0
 27 28  2  0
 28 29  1  0
 29 30  2  0
 30 25  1  0
 20 25  1  0
M  END
> <chembl_id>
CHEMBL3741003

$$$$

  SciTegic12091613582D

 31 35  0  0  0  0            999 V2000
   -1.2964    1.4973    0.0000 C   0  0
   -2.6111    0.7486    0.0000 C   0  0
   -2.6111   -0.7486    0.0000 C   0  0
   -1.2964   -1.4973    0.0000 C   0  0
   -3.9091   -1.5019    0.0000 C   0  0
   -3.9067   -3.0027    0.0000 C   0  0  1  0  0  0
   -5.1171   -3.8670    0.0000 N   0  0
   -4.6484   -5.2919    0.0000 C   0  0
   -3.1484   -5.2864    0.0000 C   0  0
   -2.6901   -3.8581    0.0000 C   0  0
   -6.5411   -3.4013    0.0000 C   0  0
   -6.7879   -2.2269    0.0000 O   0  0
   -7.6590   -4.4026    0.0000 C   0  0
   -9.1098   -4.0753    0.0000 C   0  0
   -9.8605   -5.3740    0.0000 S   0  0
   -8.8574   -6.4892    0.0000 C   0  0
   -7.4868   -5.8798    0.0000 N   0  0
   -9.1075   -7.6629    0.0000 C   0  0
   -9.7113   -2.7004    0.0000 C   0  0
   -8.9225   -1.4307    0.0000 C   0  0
   -9.6310   -0.1086    0.0000 C   0  0
  -11.1302   -0.0610    0.0000 C   0  0
  -11.9210   -1.3356    0.0000 C   0  0
  -11.2126   -2.6578    0.0000 C   0  0
   -8.9983    0.9111    0.0000 C   0  0
    0.0000    0.7486    0.0000 C   0  0
    0.0000   -0.7486    0.0000 C   0  0
    1.2964   -1.4973    0.0000 O   0  0
    2.5929   -0.7486    0.0000 C   0  0
    2.5929    0.7486    0.0000 C   0  0
    1.2964    1.4973    0.0000 O   0  0
 26  1  1  0
  1  2  2  0
  2  3  1  0
  3  4  2  0
  4 27  1  0
  3  5  1  0
  6  5  1  6
  6  7  1  0
  7  8  1  0
  8  9  1  0
  9 10  1  0
 10  6  1  0
  7 11  1  0
 11 12  2  0
 11 13  1  0
 13 14  2  0
 14 15  1  0
 15 16  1  0
 16 17  2  0
 17 13  1  0
 16 18  1  0
 14 19  1  0
 19 20  2  0
 20 21  1  0
 21 22  2  0
 22 23  1  0
 23 24  2  0
 24 19  1  0
 21 25  1  0
 26 27  2  0
 26 31  1  0
 27 28  1  0
 28 29  1  0
 29 30  1  0
 30 31  1  0
M  END
> <chembl_id>
CHEMBL3742301

$$$$

  SciTegic12091613582D

 31 34  0  0  0  0            999 V2000
    1.2990   -0.7500    0.0000 C   0  0
    1.2990    0.7500    0.0000 C   0  0
    0.0000    1.5000    0.0000 C   0  0
   -1.2990    0.7500    0.0000 C   0  0
   -1.2990   -0.7500    0.0000 C   0  0
    0.0000   -1.5000    0.0000 C   0  0
   -0.0031    3.0008    0.0000 O   0  0
   -1.0432    3.5993    0.0000 C   0  0
    2.6003    1.4978    0.0000 O   0  0
    3.6387    0.8963    0.0000 C   0  0
   -2.5972   -1.5031    0.0000 C   0  0
   -2.5951   -3.0039    0.0000 C   0  0  1  0  0  0
   -3.8056   -3.8680    0.0000 N   0  0
   -3.3371   -5.2929    0.0000 C   0  0
   -1.8371   -5.2877    0.0000 C   0  0
   -1.3786   -3.8595    0.0000 C   0  0
   -5.2295   -3.4020    0.0000 C   0  0
   -5.4761   -2.2276    0.0000 O   0  0
   -6.3476   -4.4031    0.0000 C   0  0
   -7.7739   -3.9386    0.0000 C   0  0
   -8.8894   -4.9415    0.0000 N   0  0
   -8.5786   -6.4090    0.0000 C   0  0
   -7.1523   -6.8735    0.0000 C   0  0
   -6.0369   -5.8707    0.0000 N   0  0
   -8.0849   -2.4705    0.0000 C   0  0
   -6.9711   -1.4657    0.0000 C   0  0
   -7.2843    0.0013    0.0000 C   0  0
   -8.7113    0.4635    0.0000 C   0  0
   -9.8251   -0.5411    0.0000 C   0  0
   -9.5119   -2.0081    0.0000 C   0  0
   -6.3932    0.8050    0.0000 C   0  0
  1  2  2  0
  2  3  1  0
  3  4  2  0
  4  5  1  0
  5  6  2  0
  6  1  1  0
  3  7  1  0
  7  8  1  0
  2  9  1  0
  9 10  1  0
  5 11  1  0
 12 11  1  6
 12 13  1  0
 13 14  1  0
 14 15  1  0
 15 16  1  0
 16 12  1  0
 13 17  1  0
 17 18  2  0
 17 19  1  0
 19 20  2  0
 20 21  1  0
 21 22  2  0
 22 23  1  0
 23 24  2  0
 24 19  1  0
 25 26  2  0
 26 27  1  0
 27 28  2  0
 28 29  1  0
 29 30  2  0
 30 25  1  0
 20 25  1  0
 27 31  1  0
M  END
> <chembl_id>
CHEMBL3739859

$$$$

  SciTegic12091613592D

 33 37  0  0  0  0            999 V2000
   -6.5225   -7.6566    0.0000 C   0  0
   -5.9271   -6.2799    0.0000 C   0  0
   -6.8216   -5.0757    0.0000 C   0  0
   -8.3117   -5.2485    0.0000 C   0  0
   -6.2286   -3.6970    0.0000 C   0  0
   -7.1238   -2.4956    0.0000 C   0  0  1  0  0  0
   -6.6902   -1.0730    0.0000 N   0  0
   -7.8887   -0.1923    0.0000 C   0  0
   -9.0965   -1.0818    0.0000 C   0  0
   -8.6238   -2.5053    0.0000 C   0  0
   -5.2669   -0.5970    0.0000 C   0  0
   -4.3685   -1.3926    0.0000 O   0  0
   -4.9669    0.8708    0.0000 C   0  0
   -3.6168    1.4950    0.0000 C   0  0
   -3.7582    2.9755    0.0000 S   0  0
   -5.2262    3.2840    0.0000 C   0  0
   -5.9732    1.9832    0.0000 N   0  0
   -5.7168    4.3791    0.0000 C   0  0
   -2.3155    0.7475    0.0000 C   0  0
   -1.0028    1.5132    0.0000 C   0  0
   -1.0028   -1.5132    0.0000 C   0  0
   -2.3155   -0.7475    0.0000 C   0  0
   -8.0125   -7.8293    0.0000 C   0  0
   -8.9071   -6.6253    0.0000 C   0  0
   -5.6250   -8.8595    0.0000 O   0  0
   -4.4331   -8.7196    0.0000 C   0  0
   -8.6112   -9.2056    0.0000 O   0  0
   -9.8034   -9.3420    0.0000 C   0  0
    0.2917   -0.7475    0.0000 C   0  0
    0.2917    0.7475    0.0000 C   0  0
    1.7138    1.2033    0.0000 O   0  0
    2.5889    0.0182    0.0000 C   0  0
    1.7138   -1.2033    0.0000 O   0  0
 23  1  1  0
  1  2  2  0
  2  3  1  0
  3  4  2  0
  4 24  1  0
  3  5  1  0
  6  5  1  6
  6  7  1  0
  7  8  1  0
  8  9  1  0
  9 10  1  0
 10  6  1  0
  7 11  1  0
 11 12  2  0
 11 13  1  0
 13 14  2  0
 14 15  1  0
 15 16  1  0
 16 17  2  0
 17 13  1  0
 16 18  1  0
 14 19  1  0
 19 20  2  0
 20 30  1  0
 29 21  1  0
 21 22  2  0
 22 19  1  0
 23 24  2  0
  1 25  1  0
 25 26  1  0
 23 27  1  0
 27 28  1  0
 29 30  2  0
 30 31  1  0
 31 32  1  0
 32 33  1  0
 33 29  1  0
M  END
> <chembl_id>
CHEMBL3741194

$$$$

  SciTegic12091613582D

 30 34  0  0  0  0            999 V2000
   -1.0028    1.5132    0.0000 C   0  0
   -2.3155    0.7475    0.0000 C   0  0
   -2.3155   -0.7475    0.0000 C   0  0
   -1.0028   -1.5132    0.0000 C   0  0
   -3.6187   -1.4919    0.0000 C   0  0
   -3.6267   -2.9927    0.0000 C   0  0  1  0  0  0
   -4.8430   -3.8486    0.0000 N   0  0
   -4.3841   -5.2767    0.0000 C   0  0
   -2.8841   -5.2815    0.0000 C   0  0
   -2.4160   -3.8564    0.0000 C   0  0
   -6.2637   -3.3730    0.0000 C   0  0
   -6.5024   -2.1970    0.0000 O   0  0
   -7.3885   -4.3666    0.0000 C   0  0
   -8.8371   -4.0294    0.0000 C   0  0
   -9.5967   -5.3228    0.0000 S   0  0
   -8.6013   -6.4450    0.0000 C   0  0
   -7.2265   -5.8451    0.0000 N   0  0
   -8.8595   -7.6169    0.0000 C   0  0
   -9.4291   -2.6504    0.0000 C   0  0
   -8.6315   -1.3861    0.0000 C   0  0
   -9.3308   -0.0591    0.0000 C   0  0
  -10.8297   -0.0013    0.0000 C   0  0
  -11.6293   -1.2704    0.0000 C   0  0
  -10.9300   -2.5974    0.0000 C   0  0
   -8.6912    0.9562    0.0000 C   0  0
    0.2917    0.7475    0.0000 C   0  0
    0.2917   -0.7475    0.0000 C   0  0
    1.7138   -1.2033    0.0000 O   0  0
    2.5889    0.0182    0.0000 C   0  0
    1.7138    1.2033    0.0000 O   0  0
 26  1  1  0
  1  2  2  0
  2  3  1  0
  3  4  2  0
  4 27  1  0
  3  5  1  0
  6  5  1  6
  6  7  1  0
  7  8  1  0
  8  9  1  0
  9 10  1  0
 10  6  1  0
  7 11  1  0
 11 12  2  0
 11 13  1  0
 13 14  2  0
 14 15  1  0
 15 16  1  0
 16 17  2  0
 17 13  1  0
 16 18  1  0
 14 19  1  0
 19 20  2  0
 20 21  1  0
 21 22  2  0
 22 23  1  0
 23 24  2  0
 24 19  1  0
 21 25  1  0
 26 27  2  0
 27 28  1  0
 28 29  1  0
 29 30  1  0
 30 26  1  0
M  END
> <chembl_id>
CHEMBL3741099

$$$$

  SciTegic12091613582D

 30 33  0  0  0  0            999 V2000
    1.2990   -0.7500    0.0000 C   0  0
    1.2990    0.7500    0.0000 C   0  0
    0.0000    1.5000    0.0000 C   0  0
   -1.2990    0.7500    0.0000 C   0  0
   -1.2990   -0.7500    0.0000 C   0  0
    0.0000   -1.5000    0.0000 C   0  0
   -0.0031    3.0008    0.0000 O   0  0
   -1.0432    3.5993    0.0000 C   0  0
    2.6003    1.4978    0.0000 O   0  0
    3.6387    0.8963    0.0000 C   0  0
   -2.5972   -1.5031    0.0000 C   0  0
   -2.5951   -3.0039    0.0000 C   0  0  1  0  0  0
   -3.8056   -3.8680    0.0000 N   0  0
   -3.3371   -5.2929    0.0000 C   0  0
   -1.8371   -5.2877    0.0000 C   0  0
   -1.3786   -3.8595    0.0000 C   0  0
   -5.2295   -3.4020    0.0000 C   0  0
   -5.4761   -2.2276    0.0000 O   0  0
   -6.3476   -4.4031    0.0000 C   0  0
   -7.7739   -3.9386    0.0000 C   0  0
   -8.8894   -4.9415    0.0000 C   0  0
   -8.5786   -6.4090    0.0000 C   0  0
   -7.1523   -6.8735    0.0000 C   0  0
   -6.0369   -5.8707    0.0000 C   0  0
   -8.0849   -2.4705    0.0000 N   0  0
   -6.9037   -8.0475    0.0000 C   0  0
   -7.0777   -1.3762    0.0000 N   0  0
   -7.8288   -0.0778    0.0000 C   0  0
   -9.2957   -0.3910    0.0000 C   0  0
   -9.4512   -1.8829    0.0000 N   0  0
  1  2  2  0
  2  3  1  0
  3  4  2  0
  4  5  1  0
  5  6  2  0
  6  1  1  0
  3  7  1  0
  7  8  1  0
  2  9  1  0
  9 10  1  0
  5 11  1  0
 12 11  1  6
 12 13  1  0
 13 14  1  0
 14 15  1  0
 15 16  1  0
 16 12  1  0
 13 17  1  0
 17 18  2  0
 17 19  1  0
 19 20  2  0
 20 21  1  0
 21 22  2  0
 22 23  1  0
 23 24  2  0
 24 19  1  0
 20 25  1  0
 23 26  1  0
 25 27  1  0
 27 28  2  0
 28 29  1  0
 29 30  2  0
 30 25  1  0
M  END
> <chembl_id>
CHEMBL3740506

$$$$

  SciTegic01161211252D

 32 36  0  0  0  0            999 V2000
    9.4130  -21.2520    0.0000 C   0  0
   10.1273  -21.6653    0.0000 N   0  0
   11.2516  -23.1610    0.0000 C   0  0  1  0  0  0
   11.7738  -22.4865    0.0000 N   0  0
   11.5713  -21.7055    0.0000 C   0  0
   10.4194  -23.1570    0.0000 C   0  0
    9.9182  -22.5037    0.0000 C   0  0
   10.8452  -21.3417    0.0000 C   0  0
   12.5984  -22.5240    0.0000 C   0  0
   12.9781  -23.2569    0.0000 C   0  0
   13.0431  -21.8287    0.0000 O   0  0
   12.5314  -23.9482    0.0000 C   0  0
   12.9105  -24.6806    0.0000 C   0  0
   13.7359  -24.7186    0.0000 C   0  0
   14.1807  -24.0182    0.0000 C   0  0
   13.7992  -23.2888    0.0000 C   0  0
   14.2921  -22.6258    0.0000 N   0  0
   15.1174  -22.6385    0.0000 N   0  0
   15.3845  -21.8575    0.0000 C   0  0
   14.7243  -21.3621    0.0000 C   0  0
   14.0492  -21.8370    0.0000 N   0  0
   11.6133  -23.9029    0.0000 C   0  0
    9.3246  -20.4306    0.0000 O   0  0
    8.6561  -21.5863    0.0000 N   0  0
    8.1044  -20.9726    0.0000 C   0  0
    8.5175  -20.2598    0.0000 C   0  0
    8.1067  -19.5478    0.0000 C   0  0
    7.2831  -19.5473    0.0000 C   0  0
    6.8719  -20.2650    0.0000 C   0  0
    7.2850  -20.9740    0.0000 C   0  0
   12.4654  -25.3757    0.0000 C   0  0
    6.0465  -20.2679    0.0000 Cl  0  0
 15 16  2  0
 16 10  1  0
 17 18  1  0
  6  7  1  0
  4  9  1  0
  1  2  1  0
  9 10  1  0
 18 19  2  0
 19 20  1  0
 20 21  2  0
 21 17  1  0
 16 17  1  0
  3  4  1  0
  3 22  1  6
  1 23  1  0
  9 11  2  0
  4  5  1  0
 23 26  1  0
 25 24  1  0
 24  1  2  0
 10 12  2  0
  3  6  1  0
 25 26  2  0
 12 13  1  0
 26 27  1  0
  7  2  1  0
 27 28  2  0
 13 14  2  0
 28 29  1  0
  2  8  1  0
 29 30  2  0
 30 25  1  0
 14 15  1  0
 13 31  1  0
  8  5  1  0
 29 32  1  0
M  END
> <chembl_id>
CHEMBL1083659

$$$$

  SciTegic12091613582D

 30 33  0  0  0  0            999 V2000
    1.2990   -0.7500    0.0000 C   0  0
    0.0000   -1.5000    0.0000 C   0  0
   -1.2990   -0.7500    0.0000 C   0  0
   -1.2990    0.7500    0.0000 C   0  0
   -2.6003   -1.4978    0.0000 C   0  0
   -3.8990   -0.7455    0.0000 C   0  0  1  0  0  0
   -5.2526   -1.3618    0.0000 N   0  0
   -6.2524   -0.2436    0.0000 C   0  0
   -5.4979    1.0528    0.0000 C   0  0
   -4.0317    0.7358    0.0000 C   0  0
   -5.5609   -2.8279    0.0000 C   0  0
   -4.6672   -3.6287    0.0000 O   0  0
   -6.9870   -3.2957    0.0000 C   0  0
   -7.4287   -4.7158    0.0000 C   0  0
   -8.9287   -4.7169    0.0000 S   0  0
   -9.3933   -3.2906    0.0000 C   0  0
   -8.1804   -2.4081    0.0000 N   0  0
  -10.5348   -2.9206    0.0000 C   0  0
   -6.5386   -5.9241    0.0000 C   0  0
   -5.0446   -5.8755    0.0000 C   0  0
   -4.2536   -7.1500    0.0000 C   0  0
   -4.9618   -8.4722    0.0000 C   0  0
   -6.4610   -8.5201    0.0000 C   0  0
   -7.2520   -7.2456    0.0000 C   0  0
   -3.0542   -7.1117    0.0000 C   0  0
    1.2990    0.7500    0.0000 C   0  0
    0.0000    1.5000    0.0000 C   0  0
    2.3383   -1.3500    0.0000 Cl  0  0
    2.5972    1.5031    0.0000 O   0  0
    2.5955    2.7031    0.0000 C   0  0
 26  1  1  0
  1  2  2  0
  2  3  1  0
  3  4  2  0
  4 27  1  0
  3  5  1  0
  6  5  1  1
  6  7  1  0
  7  8  1  0
  8  9  1  0
  9 10  1  0
 10  6  1  0
  7 11  1  0
 11 12  2  0
 11 13  1  0
 13 14  2  0
 14 15  1  0
 15 16  1  0
 16 17  2  0
 17 13  1  0
 16 18  1  0
 14 19  1  0
 19 20  2  0
 20 21  1  0
 21 22  2  0
 22 23  1  0
 23 24  2  0
 24 19  1  0
 21 25  1  0
 26 27  2  0
  1 28  1  0
 26 29  1  0
 29 30  1  0
M  END
> <chembl_id>
CHEMBL3741779

$$$$
