
  SciTegic12231509382D

 37 40  0  0  0  0            999 V2000
   13.7099   -9.2219    0.0000 N   0  0
   13.7099  -10.0469    0.0000 C   0  0
   14.4220  -10.4553    0.0000 C   0  0
   14.4220   -8.8051    0.0000 C   0  0  2  0  0  0
   15.1340   -9.2219    0.0000 C   0  0
   15.1324  -10.0451    0.0000 C   0  0
   15.8435  -10.4563    0.0000 C   0  0
   16.5566  -10.0455    0.0000 C   0  0
   16.5542   -9.2191    0.0000 C   0  0
   15.8426   -8.8116    0.0000 C   0  0
   14.4220   -7.9800    0.0000 C   0  0
   15.1365   -7.5675    0.0000 C   0  0
   15.1365   -6.7425    0.0000 C   0  0
   15.8577   -6.3309    0.0000 C   0  0
   15.8581   -5.5066    0.0000 C   0  0
   15.1430   -5.0995    0.0000 C   0  0
   14.4260   -5.5103    0.0000 C   0  0
   14.4293   -6.3331    0.0000 C   0  0
   12.9941   -8.8114    0.0000 C   0  0  2  0  0  0
   12.9917   -7.9863    0.0000 C   0  0
   12.2808   -9.2260    0.0000 C   0  0
   11.5650   -8.8156    0.0000 N   0  0
   12.2832  -10.0511    0.0000 O   0  0
   10.8517   -9.2303    0.0000 C   0  0
   13.7048   -7.5733    0.0000 C   0  0
   13.7028   -6.7490    0.0000 C   0  0
   12.9865   -6.3378    0.0000 C   0  0
   12.2708   -6.7568    0.0000 C   0  0
   12.2764   -7.5798    0.0000 C   0  0
   17.2674   -8.8042    0.0000 O   0  0
   17.9833   -9.2144    0.0000 C   0  0
   17.2716  -10.4573    0.0000 O   0  0
   17.2724  -11.2823    0.0000 C   0  0
   15.1419   -4.2744    0.0000 C   0  0
   15.8558   -3.8610    0.0000 F   0  0
   14.4267   -3.8629    0.0000 F   0  0
   15.1350   -3.4462    0.0000 F   0  0
  1  2  1  0
  1  4  1  0
  2  3  1  0
  3  6  1  0
  5  4  1  0
  5  6  2  0
  6  7  1  0
  7  8  2  0
  8  9  1  0
  9 10  2  0
 10  5  1  0
  4 11  1  1
 11 12  1  0
 12 13  1  0
 13 14  2  0
 14 15  1  0
 15 16  2  0
 16 17  1  0
 17 18  2  0
 18 13  1  0
  1 19  1  0
 19 20  1  1
 19 21  1  0
 21 22  1  0
 21 23  2  0
 22 24  1  0
 20 25  2  0
 25 26  1  0
 26 27  2  0
 27 28  1  0
 28 29  2  0
 29 20  1  0
  9 30  1  0
 30 31  1  0
  8 32  1  0
 32 33  1  0
 16 34  1  0
 34 35  1  0
 34 36  1  0
 34 37  1  0
M  END
> <chembl_id>
CHEMBL455136

$$$$
$$$$
$$$$
$$$$

  Mrv0541 05191417042D          

 35 38  0  0  0  0            999 V2000
   15.6995   -7.6911    0.0000 F   0  0  0  0  0  0  0  0  0  0  0  0
   14.2646  -14.2904    0.0000 C   0  0  0  0  0  0  0  0  0  0  0  0
   13.5449  -10.5814    0.0000 C   0  0  0  0  0  0  0  0  0  0  0  0
   14.9850   -8.1049    0.0000 C   0  0  0  0  0  0  0  0  0  0  0  0
   17.1122  -12.6381    0.0000 O   0  0  0  0  0  0  0  0  0  0  0  0
   14.9797  -10.5747    0.0000 C   0  0  0  0  0  0  0  0  0  0  0  0
   12.1243  -13.8858    0.0000 O   0  0  0  0  0  0  0  0  0  0  0  0
   14.9782   -7.2761    0.0000 F   0  0  0  0  0  0  0  0  0  0  0  0
   17.1163  -14.2923    0.0000 O   0  0  0  0  0  0  0  0  0  0  0  0
   14.2646  -11.8133    0.0000 C   0  0  0  0  0  0  0  0  0  0  0  0
   15.6863  -12.6453    0.0000 C   0  0  0  0  0  0  0  0  0  0  0  0
   15.6872  -14.2914    0.0000 C   0  0  0  0  0  0  0  0  0  0  0  0
   16.3984  -13.0531    0.0000 C   0  0  0  0  0  0  0  0  0  0  0  0
   12.8280  -10.1697    0.0000 C   0  0  0  0  0  0  0  0  0  0  0  0
   14.2694   -7.6930    0.0000 F   0  0  0  0  0  0  0  0  0  0  0  0
   13.5469  -11.4063    0.0000 C   0  0  0  0  0  0  0  0  0  0  0  0
   13.5520  -13.8817    0.0000 C   0  0  0  0  0  0  0  0  0  0  0  0
   14.9772  -13.0560    0.0000 C   0  0  0  0  0  0  0  0  0  0  0  0
   11.4056  -12.6494    0.0000 N   0  0  0  0  0  0  0  0  0  0  0  0
   14.2687   -9.3416    0.0000 C   0  0  0  0  0  0  0  0  0  0  0  0
   12.8333  -11.8195    0.0000 C   0  0  0  0  0  0  0  0  0  0  0  0
   12.1174  -11.4127    0.0000 C   0  0  0  0  0  0  0  0  0  0  0  0
   14.2646  -12.6390    0.0000 C   0  0  1  0  0  0  0  0  0  0  0  0
   12.1218  -13.0601    0.0000 C   0  0  0  0  0  0  0  0  0  0  0  0
   14.9797  -11.4004    0.0000 C   0  0  0  0  0  0  0  0  0  0  0  0
   12.8357  -12.6452    0.0000 C   0  0  2  0  0  0  0  0  0  0  0  0
   16.4008  -13.8802    0.0000 C   0  0  0  0  0  0  0  0  0  0  0  0
   15.7014  -10.1630    0.0000 C   0  0  0  0  0  0  0  0  0  0  0  0
   15.7017   -9.3380    0.0000 C   0  0  0  0  0  0  0  0  0  0  0  0
   14.2719  -10.1652    0.0000 C   0  0  0  0  0  0  0  0  0  0  0  0
   14.9755  -13.8798    0.0000 C   0  0  0  0  0  0  0  0  0  0  0  0
   14.9862   -8.9307    0.0000 C   0  0  0  0  0  0  0  0  0  0  0  0
   13.5520  -13.0560    0.0000 N   0  0  0  0  0  0  0  0  0  0  0  0
   12.1118  -10.5891    0.0000 C   0  0  0  0  0  0  0  0  0  0  0  0
   10.6991  -13.0601    0.0000 C   0  0  0  0  0  0  0  0  0  0  0  0
 27  9  1  0  0  0  0
 32  4  1  0  0  0  0
 20 30  2  0  0  0  0
 34 22  2  0  0  0  0
 13  5  1  0  0  0  0
 21 16  2  0  0  0  0
 26 24  1  0  0  0  0
  6 28  2  0  0  0  0
 32 20  1  0  0  0  0
  2 31  1  0  0  0  0
 30  6  1  0  0  0  0
 31 12  1  0  0  0  0
 13 11  2  0  0  0  0
 24 19  1  0  0  0  0
 25  6  1  0  0  0  0
 24  7  2  0  0  0  0
 23 10  1  1  0  0  0
 10 25  1  0  0  0  0
 28 29  1  0  0  0  0
 14 34  1  0  0  0  0
 29 32  2  0  0  0  0
 26 21  1  1  0  0  0
  4 15  1  0  0  0  0
  4  1  1  0  0  0  0
  3 14  2  0  0  0  0
  4  8  1  0  0  0  0
 22 21  1  0  0  0  0
 17  2  1  0  0  0  0
 16  3  1  0  0  0  0
 12 27  2  0  0  0  0
 33 23  1  0  0  0  0
 11 18  1  0  0  0  0
 18 31  2  0  0  0  0
 33 26  1  0  0  0  0
 33 17  1  0  0  0  0
 27 13  1  0  0  0  0
 18 23  1  0  0  0  0
 19 35  1  0  0  0  0
M  END
> <chembl_id>
CHEMBL3542269

$$$$
$$$$
$$$$
$$$$
$$$$
$$$$
$$$$
$$$$
$$$$
$$$$
$$$$
$$$$
$$$$
$$$$
$$$$
$$$$
$$$$
$$$$
$$$$
$$$$
$$$$
$$$$
$$$$
$$$$
$$$$
$$$$
$$$$
$$$$
$$$$
$$$$
$$$$

  Mrv0541 05191411192D          

 36 39  0  0  0  0            999 V2000
   26.2079   -5.6956    0.0000 N   0  0  0  0  0  0  0  0  0  0  0  0
   26.2079   -6.5128    0.0000 C   0  0  0  0  0  0  0  0  0  0  0  0
   26.9132   -6.9172    0.0000 C   0  0  0  0  0  0  0  0  0  0  0  0
   26.9132   -5.2829    0.0000 C   0  0  2  0  0  0  0  0  0  0  0  0
   27.6185   -5.6956    0.0000 C   0  0  0  0  0  0  0  0  0  0  0  0
   27.6169   -6.5110    0.0000 C   0  0  0  0  0  0  0  0  0  0  0  0
   28.3211   -6.9182    0.0000 C   0  0  0  0  0  0  0  0  0  0  0  0
   29.0274   -6.5113    0.0000 C   0  0  0  0  0  0  0  0  0  0  0  0
   29.0250   -5.6928    0.0000 C   0  0  0  0  0  0  0  0  0  0  0  0
   28.3202   -5.2892    0.0000 C   0  0  0  0  0  0  0  0  0  0  0  0
   26.9132   -4.4657    0.0000 C   0  0  0  0  0  0  0  0  0  0  0  0
   27.6209   -4.0571    0.0000 C   0  0  0  0  0  0  0  0  0  0  0  0
   27.6209   -3.2399    0.0000 C   0  0  0  0  0  0  0  0  0  0  0  0
   28.3352   -2.8323    0.0000 C   0  0  0  0  0  0  0  0  0  0  0  0
   28.3356   -2.0159    0.0000 C   0  0  0  0  0  0  0  0  0  0  0  0
   27.6273   -1.6127    0.0000 C   0  0  0  0  0  0  0  0  0  0  0  0
   26.9173   -2.0195    0.0000 C   0  0  0  0  0  0  0  0  0  0  0  0
   26.9204   -2.8346    0.0000 C   0  0  0  0  0  0  0  0  0  0  0  0
   25.4990   -5.2891    0.0000 C   0  0  2  0  0  0  0  0  0  0  0  0
   25.4966   -4.4719    0.0000 C   0  0  0  0  0  0  0  0  0  0  0  0
   24.7925   -5.6997    0.0000 C   0  0  0  0  0  0  0  0  0  0  0  0
   24.0836   -5.2932    0.0000 N   0  0  0  0  0  0  0  0  0  0  0  0
   24.7949   -6.5169    0.0000 O   0  0  0  0  0  0  0  0  0  0  0  0
   23.3771   -5.7039    0.0000 C   0  0  0  0  0  0  0  0  0  0  0  0
   26.2029   -4.0629    0.0000 C   0  0  0  0  0  0  0  0  0  0  0  0
   26.2009   -3.2464    0.0000 C   0  0  0  0  0  0  0  0  0  0  0  0
   25.4914   -2.8391    0.0000 C   0  0  0  0  0  0  0  0  0  0  0  0
   24.7826   -3.2542    0.0000 C   0  0  0  0  0  0  0  0  0  0  0  0
   24.7881   -4.0692    0.0000 C   0  0  0  0  0  0  0  0  0  0  0  0
   29.7314   -5.2819    0.0000 O   0  0  0  0  0  0  0  0  0  0  0  0
   29.7355   -6.9192    0.0000 O   0  0  0  0  0  0  0  0  0  0  0  0
   29.7363   -7.7364    0.0000 C   0  0  0  0  0  0  0  0  0  0  0  0
   27.6262   -0.7955    0.0000 C   0  0  0  0  0  0  0  0  0  0  0  0
   28.3334   -0.3860    0.0000 F   0  0  0  0  0  0  0  0  0  0  0  0
   26.9179   -0.3879    0.0000 F   0  0  0  0  0  0  0  0  0  0  0  0
   27.6194    0.0248    0.0000 F   0  0  0  0  0  0  0  0  0  0  0  0
  1  2  1  0  0  0  0
  1  4  1  0  0  0  0
  2  3  1  0  0  0  0
  3  6  1  0  0  0  0
  5  4  1  0  0  0  0
  5  6  2  0  0  0  0
  6  7  1  0  0  0  0
  7  8  2  0  0  0  0
  8  9  1  0  0  0  0
  9 10  2  0  0  0  0
 10  5  1  0  0  0  0
  4 11  1  1  0  0  0
 11 12  1  0  0  0  0
 12 13  1  0  0  0  0
 13 14  2  0  0  0  0
 14 15  1  0  0  0  0
 15 16  2  0  0  0  0
 16 17  1  0  0  0  0
 17 18  2  0  0  0  0
 18 13  1  0  0  0  0
  1 19  1  0  0  0  0
 19 20  1  1  0  0  0
 19 21  1  0  0  0  0
 21 22  1  0  0  0  0
 21 23  2  0  0  0  0
 22 24  1  0  0  0  0
 20 25  2  0  0  0  0
 25 26  1  0  0  0  0
 26 27  2  0  0  0  0
 27 28  1  0  0  0  0
 28 29  2  0  0  0  0
 29 20  1  0  0  0  0
  9 30  1  0  0  0  0
  8 31  1  0  0  0  0
 31 32  1  0  0  0  0
 16 33  1  0  0  0  0
 33 34  1  0  0  0  0
 33 35  1  0  0  0  0
 33 36  1  0  0  0  0
M  END
> <chembl_id>
CHEMBL3542339

$$$$

  Mrv0541 05191417062D          

 37 40  0  0  0  0            999 V2000
   13.7099   -9.2219    0.0000 N   0  0  0  0  0  0  0  0  0  0  0  0
   13.7099  -10.0469    0.0000 C   0  0  0  0  0  0  0  0  0  0  0  0
   14.4220  -10.4553    0.0000 C   0  0  0  0  0  0  0  0  0  0  0  0
   14.4220   -8.8051    0.0000 C   0  0  2  0  0  0  0  0  0  0  0  0
   15.1340   -9.2219    0.0000 C   0  0  0  0  0  0  0  0  0  0  0  0
   15.1324  -10.0451    0.0000 C   0  0  0  0  0  0  0  0  0  0  0  0
   15.8435  -10.4563    0.0000 C   0  0  0  0  0  0  0  0  0  0  0  0
   16.5566  -10.0455    0.0000 C   0  0  0  0  0  0  0  0  0  0  0  0
   16.5542   -9.2191    0.0000 C   0  0  0  0  0  0  0  0  0  0  0  0
   15.8426   -8.8116    0.0000 C   0  0  0  0  0  0  0  0  0  0  0  0
   14.4220   -7.9800    0.0000 C   0  0  0  0  0  0  0  0  0  0  0  0
   15.1365   -7.5675    0.0000 C   0  0  0  0  0  0  0  0  0  0  0  0
   15.1365   -6.7425    0.0000 C   0  0  0  0  0  0  0  0  0  0  0  0
   15.8577   -6.3309    0.0000 C   0  0  0  0  0  0  0  0  0  0  0  0
   15.8581   -5.5066    0.0000 C   0  0  0  0  0  0  0  0  0  0  0  0
   15.1430   -5.0995    0.0000 C   0  0  0  0  0  0  0  0  0  0  0  0
   14.4260   -5.5103    0.0000 C   0  0  0  0  0  0  0  0  0  0  0  0
   14.4293   -6.3331    0.0000 C   0  0  0  0  0  0  0  0  0  0  0  0
   12.9941   -8.8114    0.0000 C   0  0  2  0  0  0  0  0  0  0  0  0
   12.9917   -7.9863    0.0000 C   0  0  0  0  0  0  0  0  0  0  0  0
   12.2808   -9.2260    0.0000 C   0  0  0  0  0  0  0  0  0  0  0  0
   11.5650   -8.8156    0.0000 N   0  0  0  0  0  0  0  0  0  0  0  0
   12.2832  -10.0511    0.0000 O   0  0  0  0  0  0  0  0  0  0  0  0
   10.8517   -9.2303    0.0000 C   0  0  0  0  0  0  0  0  0  0  0  0
   13.7048   -7.5733    0.0000 C   0  0  0  0  0  0  0  0  0  0  0  0
   13.7028   -6.7490    0.0000 C   0  0  0  0  0  0  0  0  0  0  0  0
   12.9865   -6.3378    0.0000 C   0  0  0  0  0  0  0  0  0  0  0  0
   12.2708   -6.7568    0.0000 C   0  0  0  0  0  0  0  0  0  0  0  0
   12.2764   -7.5798    0.0000 C   0  0  0  0  0  0  0  0  0  0  0  0
   17.2674   -8.8042    0.0000 O   0  0  0  0  0  0  0  0  0  0  0  0
   17.9833   -9.2144    0.0000 C   0  0  0  0  0  0  0  0  0  0  0  0
   17.2716  -10.4573    0.0000 O   0  0  0  0  0  0  0  0  0  0  0  0
   17.2724  -11.2823    0.0000 C   0  0  0  0  0  0  0  0  0  0  0  0
   15.1419   -4.2744    0.0000 C   0  0  0  0  0  0  0  0  0  0  0  0
   15.8558   -3.8610    0.0000 F   0  0  0  0  0  0  0  0  0  0  0  0
   14.4267   -3.8629    0.0000 F   0  0  0  0  0  0  0  0  0  0  0  0
   15.1350   -3.4462    0.0000 F   0  0  0  0  0  0  0  0  0  0  0  0
  1  2  1  0  0  0  0
  1  4  1  0  0  0  0
  2  3  1  0  0  0  0
  3  6  1  0  0  0  0
  5  4  1  0  0  0  0
  5  6  2  0  0  0  0
  6  7  1  0  0  0  0
  7  8  2  0  0  0  0
  8  9  1  0  0  0  0
  9 10  2  0  0  0  0
 10  5  1  0  0  0  0
  4 11  1  1  0  0  0
 11 12  1  0  0  0  0
 12 13  1  0  0  0  0
 13 14  2  0  0  0  0
 14 15  1  0  0  0  0
 15 16  2  0  0  0  0
 16 17  1  0  0  0  0
 17 18  2  0  0  0  0
 18 13  1  0  0  0  0
  1 19  1  0  0  0  0
 19 20  1  1  0  0  0
 19 21  1  0  0  0  0
 21 22  1  0  0  0  0
 21 23  2  0  0  0  0
 22 24  1  0  0  0  0
 20 25  2  0  0  0  0
 25 26  1  0  0  0  0
 26 27  2  0  0  0  0
 27 28  1  0  0  0  0
 28 29  2  0  0  0  0
 29 20  1  0  0  0  0
  9 30  1  0  0  0  0
 30 31  1  0  0  0  0
  8 32  1  0  0  0  0
 32 33  1  0  0  0  0
 16 34  1  0  0  0  0
 34 35  1  0  0  0  0
 34 36  1  0  0  0  0
 34 37  1  0  0  0  0
M  ISO  1   4  14
M  END
> <chembl_id>
CHEMBL3542330

$$$$
$$$$
$$$$
$$$$
$$$$

  Mrv0541 05191411192D          

 36 39  0  0  0  0            999 V2000
   34.3509   -5.9927    0.0000 N   0  0  0  0  0  0  0  0  0  0  0  0
   34.3509   -6.8099    0.0000 C   0  0  0  0  0  0  0  0  0  0  0  0
   35.0562   -7.2144    0.0000 C   0  0  0  0  0  0  0  0  0  0  0  0
   35.0562   -5.5800    0.0000 C   0  0  2  0  0  0  0  0  0  0  0  0
   35.7615   -5.9927    0.0000 C   0  0  0  0  0  0  0  0  0  0  0  0
   35.7599   -6.8081    0.0000 C   0  0  0  0  0  0  0  0  0  0  0  0
   36.4641   -7.2154    0.0000 C   0  0  0  0  0  0  0  0  0  0  0  0
   37.1704   -6.8084    0.0000 C   0  0  0  0  0  0  0  0  0  0  0  0
   37.1680   -5.9900    0.0000 C   0  0  0  0  0  0  0  0  0  0  0  0
   36.4633   -5.5863    0.0000 C   0  0  0  0  0  0  0  0  0  0  0  0
   35.0562   -4.7628    0.0000 C   0  0  0  0  0  0  0  0  0  0  0  0
   35.7639   -4.3542    0.0000 C   0  0  0  0  0  0  0  0  0  0  0  0
   35.7639   -3.5370    0.0000 C   0  0  0  0  0  0  0  0  0  0  0  0
   36.4782   -3.1295    0.0000 C   0  0  0  0  0  0  0  0  0  0  0  0
   36.4786   -2.3131    0.0000 C   0  0  0  0  0  0  0  0  0  0  0  0
   35.7703   -1.9099    0.0000 C   0  0  0  0  0  0  0  0  0  0  0  0
   35.0603   -2.3166    0.0000 C   0  0  0  0  0  0  0  0  0  0  0  0
   35.0634   -3.1317    0.0000 C   0  0  0  0  0  0  0  0  0  0  0  0
   33.6420   -5.5862    0.0000 C   0  0  2  0  0  0  0  0  0  0  0  0
   33.6396   -4.7690    0.0000 C   0  0  0  0  0  0  0  0  0  0  0  0
   32.9355   -5.9969    0.0000 C   0  0  0  0  0  0  0  0  0  0  0  0
   32.2266   -5.5904    0.0000 N   0  0  0  0  0  0  0  0  0  0  0  0
   32.9379   -6.8141    0.0000 O   0  0  0  0  0  0  0  0  0  0  0  0
   31.5201   -6.0010    0.0000 C   0  0  0  0  0  0  0  0  0  0  0  0
   34.3459   -4.3600    0.0000 C   0  0  0  0  0  0  0  0  0  0  0  0
   34.3439   -3.5436    0.0000 C   0  0  0  0  0  0  0  0  0  0  0  0
   33.6345   -3.1363    0.0000 C   0  0  0  0  0  0  0  0  0  0  0  0
   32.9256   -3.5513    0.0000 C   0  0  0  0  0  0  0  0  0  0  0  0
   32.9311   -4.3664    0.0000 C   0  0  0  0  0  0  0  0  0  0  0  0
   37.8744   -5.5791    0.0000 O   0  0  0  0  0  0  0  0  0  0  0  0
   37.8785   -7.2163    0.0000 O   0  0  0  0  0  0  0  0  0  0  0  0
   35.7692   -1.0927    0.0000 C   0  0  0  0  0  0  0  0  0  0  0  0
   36.4764   -0.6832    0.0000 F   0  0  0  0  0  0  0  0  0  0  0  0
   35.0610   -0.6851    0.0000 F   0  0  0  0  0  0  0  0  0  0  0  0
   35.7624   -0.2724    0.0000 F   0  0  0  0  0  0  0  0  0  0  0  0
   38.5835   -5.9854    0.0000 C   0  0  0  0  0  0  0  0  0  0  0  0
  1  2  1  0  0  0  0
  1  4  1  0  0  0  0
  2  3  1  0  0  0  0
  3  6  1  0  0  0  0
  5  4  1  0  0  0  0
  5  6  2  0  0  0  0
  6  7  1  0  0  0  0
  7  8  2  0  0  0  0
  8  9  1  0  0  0  0
  9 10  2  0  0  0  0
 10  5  1  0  0  0  0
  4 11  1  1  0  0  0
 11 12  1  0  0  0  0
 12 13  1  0  0  0  0
 13 14  2  0  0  0  0
 14 15  1  0  0  0  0
 15 16  2  0  0  0  0
 16 17  1  0  0  0  0
 17 18  2  0  0  0  0
 18 13  1  0  0  0  0
  1 19  1  0  0  0  0
 19 20  1  1  0  0  0
 19 21  1  0  0  0  0
 21 22  1  0  0  0  0
 21 23  2  0  0  0  0
 22 24  1  0  0  0  0
 20 25  2  0  0  0  0
 25 26  1  0  0  0  0
 26 27  2  0  0  0  0
 27 28  1  0  0  0  0
 28 29  2  0  0  0  0
 29 20  1  0  0  0  0
  9 30  1  0  0  0  0
  8 31  1  0  0  0  0
 16 32  1  0  0  0  0
 32 33  1  0  0  0  0
 32 34  1  0  0  0  0
 32 35  1  0  0  0  0
 30 36  1  0  0  0  0
M  END
> <chembl_id>
CHEMBL3542389

$$$$

  Mrv0541 05191416532D          

 37 40  0  0  0  0            999 V2000
   17.2731   -5.8758    0.0000 N   0  3  0  0  0  0  0  0  0  0  0  0
   17.2731   -6.7009    0.0000 C   0  0  0  0  0  0  0  0  0  0  0  0
   17.9851   -7.1093    0.0000 C   0  0  0  0  0  0  0  0  0  0  0  0
   17.9851   -5.4591    0.0000 C   0  0  0  0  0  0  0  0  0  0  0  0
   18.6973   -5.8758    0.0000 C   0  0  0  0  0  0  0  0  0  0  0  0
   18.6957   -6.6991    0.0000 C   0  0  0  0  0  0  0  0  0  0  0  0
   19.4067   -7.1103    0.0000 C   0  0  0  0  0  0  0  0  0  0  0  0
   20.1198   -6.6994    0.0000 C   0  0  0  0  0  0  0  0  0  0  0  0
   20.1175   -5.8729    0.0000 C   0  0  0  0  0  0  0  0  0  0  0  0
   19.4059   -5.4654    0.0000 C   0  0  0  0  0  0  0  0  0  0  0  0
   17.9851   -4.6340    0.0000 C   0  0  0  0  0  0  0  0  0  0  0  0
   18.6997   -4.2214    0.0000 C   0  0  0  0  0  0  0  0  0  0  0  0
   18.6997   -3.3963    0.0000 C   0  0  0  0  0  0  0  0  0  0  0  0
   19.4210   -2.9848    0.0000 C   0  0  0  0  0  0  0  0  0  0  0  0
   19.4213   -2.1604    0.0000 C   0  0  0  0  0  0  0  0  0  0  0  0
   18.7063   -1.7534    0.0000 C   0  0  0  0  0  0  0  0  0  0  0  0
   17.9893   -2.1641    0.0000 C   0  0  0  0  0  0  0  0  0  0  0  0
   17.9925   -2.9871    0.0000 C   0  0  0  0  0  0  0  0  0  0  0  0
   16.5573   -5.4653    0.0000 C   0  0  2  0  0  0  0  0  0  0  0  0
   16.5549   -4.6402    0.0000 C   0  0  0  0  0  0  0  0  0  0  0  0
   15.8440   -5.8799    0.0000 C   0  0  0  0  0  0  0  0  0  0  0  0
   15.1281   -5.4695    0.0000 N   0  0  0  0  0  0  0  0  0  0  0  0
   15.8463   -6.7050    0.0000 O   0  0  0  0  0  0  0  0  0  0  0  0
   14.4148   -5.8842    0.0000 C   0  0  0  0  0  0  0  0  0  0  0  0
   17.2681   -4.2273    0.0000 C   0  0  0  0  0  0  0  0  0  0  0  0
   17.2659   -3.4029    0.0000 C   0  0  0  0  0  0  0  0  0  0  0  0
   16.5497   -2.9916    0.0000 C   0  0  0  0  0  0  0  0  0  0  0  0
   15.8339   -3.4107    0.0000 C   0  0  0  0  0  0  0  0  0  0  0  0
   15.8396   -4.2336    0.0000 C   0  0  0  0  0  0  0  0  0  0  0  0
   20.8307   -5.4581    0.0000 O   0  0  0  0  0  0  0  0  0  0  0  0
   21.5466   -5.8684    0.0000 C   0  0  0  0  0  0  0  0  0  0  0  0
   20.8349   -7.1112    0.0000 O   0  0  0  0  0  0  0  0  0  0  0  0
   20.8357   -7.9363    0.0000 C   0  0  0  0  0  0  0  0  0  0  0  0
   18.7052   -0.9283    0.0000 C   0  0  0  0  0  0  0  0  0  0  0  0
   19.4191   -0.5147    0.0000 F   0  0  0  0  0  0  0  0  0  0  0  0
   17.9900   -0.5167    0.0000 F   0  0  0  0  0  0  0  0  0  0  0  0
   18.6983   -0.1001    0.0000 F   0  0  0  0  0  0  0  0  0  0  0  0
  1  2  1  0  0  0  0
  1  4  2  0  0  0  0
  2  3  2  0  0  0  0
  3  6  1  0  0  0  0
  5  4  1  0  0  0  0
  5  6  2  0  0  0  0
  6  7  1  0  0  0  0
  7  8  2  0  0  0  0
  8  9  1  0  0  0  0
  9 10  2  0  0  0  0
 10  5  1  0  0  0  0
  4 11  1  0  0  0  0
 11 12  1  0  0  0  0
 12 13  1  0  0  0  0
 13 14  2  0  0  0  0
 14 15  1  0  0  0  0
 15 16  2  0  0  0  0
 16 17  1  0  0  0  0
 17 18  2  0  0  0  0
 18 13  1  0  0  0  0
  1 19  1  0  0  0  0
 19 20  1  1  0  0  0
 19 21  1  0  0  0  0
 21 22  1  0  0  0  0
 21 23  2  0  0  0  0
 22 24  1  0  0  0  0
 20 25  2  0  0  0  0
 25 26  1  0  0  0  0
 26 27  2  0  0  0  0
 27 28  1  0  0  0  0
 28 29  2  0  0  0  0
 29 20  1  0  0  0  0
  9 30  1  0  0  0  0
 30 31  1  0  0  0  0
  8 32  1  0  0  0  0
 32 33  1  0  0  0  0
 16 34  1  0  0  0  0
 34 35  1  0  0  0  0
 34 36  1  0  0  0  0
 34 37  1  0  0  0  0
M  CHG  1   1   1
M  END
> <chembl_id>
CHEMBL3542208

$$$$
$$$$
$$$$
$$$$
$$$$

  Mrv0541 05191411212D          

 27 29  0  0  0  0            999 V2000
    6.4940   -9.8011    0.0000 N   0  0  0  0  0  0  0  0  0  0  0  0
    6.4940  -10.6261    0.0000 C   0  0  0  0  0  0  0  0  0  0  0  0
    7.2060  -11.0344    0.0000 C   0  0  2  0  0  0  0  0  0  0  0  0
    7.2060   -9.3844    0.0000 C   0  0  2  0  0  0  0  0  0  0  0  0
    7.9180   -9.8011    0.0000 C   0  0  0  0  0  0  0  0  0  0  0  0
    7.9164  -10.6243    0.0000 C   0  0  0  0  0  0  0  0  0  0  0  0
    8.6274  -11.0355    0.0000 C   0  0  0  0  0  0  0  0  0  0  0  0
    9.3404  -10.6246    0.0000 C   0  0  0  0  0  0  0  0  0  0  0  0
    9.3380   -9.7983    0.0000 C   0  0  0  0  0  0  0  0  0  0  0  0
    8.6265   -9.3908    0.0000 C   0  0  0  0  0  0  0  0  0  0  0  0
    7.2060   -8.5594    0.0000 C   0  0  0  0  0  0  0  0  0  0  0  0
    7.9205   -8.1469    0.0000 C   0  0  0  0  0  0  0  0  0  0  0  0
    7.9205   -7.3219    0.0000 C   0  0  0  0  0  0  0  0  0  0  0  0
    8.6416   -6.9105    0.0000 C   0  0  0  0  0  0  0  0  0  0  0  0
    8.6420   -6.0863    0.0000 C   0  0  0  0  0  0  0  0  0  0  0  0
    7.9270   -5.6793    0.0000 C   0  0  0  0  0  0  0  0  0  0  0  0
    7.2101   -6.0899    0.0000 C   0  0  0  0  0  0  0  0  0  0  0  0
    7.2133   -6.9128    0.0000 C   0  0  0  0  0  0  0  0  0  0  0  0
   10.0512   -9.3835    0.0000 O   0  0  0  0  0  0  0  0  0  0  0  0
   10.0553  -11.0364    0.0000 O   0  0  0  0  0  0  0  0  0  0  0  0
    7.9258   -4.8543    0.0000 C   0  0  0  0  0  0  0  0  0  0  0  0
    8.6398   -4.4408    0.0000 F   0  0  0  0  0  0  0  0  0  0  0  0
    7.2108   -4.4427    0.0000 F   0  0  0  0  0  0  0  0  0  0  0  0
    7.9190   -4.0261    0.0000 F   0  0  0  0  0  0  0  0  0  0  0  0
   10.7670   -9.7937    0.0000 C   0  0  0  0  0  0  0  0  0  0  0  0
    7.2072  -11.8594    0.0000 O   0  0  0  0  0  0  0  0  0  0  0  0
   10.0561  -11.8614    0.0000 C   0  0  0  0  0  0  0  0  0  0  0  0
  1  2  1  0  0  0  0
  1  4  1  0  0  0  0
  2  3  1  0  0  0  0
  3  6  1  0  0  0  0
  5  4  1  0  0  0  0
  5  6  2  0  0  0  0
  6  7  1  0  0  0  0
  7  8  2  0  0  0  0
  8  9  1  0  0  0  0
  9 10  2  0  0  0  0
 10  5  1  0  0  0  0
  4 11  1  1  0  0  0
 11 12  1  0  0  0  0
 12 13  1  0  0  0  0
 13 14  2  0  0  0  0
 14 15  1  0  0  0  0
 15 16  2  0  0  0  0
 16 17  1  0  0  0  0
 17 18  2  0  0  0  0
 18 13  1  0  0  0  0
  9 19  1  0  0  0  0
  8 20  1  0  0  0  0
 16 21  1  0  0  0  0
 21 22  1  0  0  0  0
 21 23  1  0  0  0  0
 21 24  1  0  0  0  0
 19 25  1  0  0  0  0
  3 26  1  6  0  0  0
 20 27  1  0  0  0  0
M  END
> <chembl_id>
CHEMBL3542390

$$$$

  Mrv0541 05191411192D          

 26 28  0  0  0  0            999 V2000
    8.4897   -6.0175    0.0000 N   0  0  0  0  0  0  0  0  0  0  0  0
    8.4897   -6.8347    0.0000 C   0  0  0  0  0  0  0  0  0  0  0  0
    9.1950   -7.2392    0.0000 C   0  0  0  0  0  0  0  0  0  0  0  0
    9.1950   -5.6048    0.0000 C   0  0  2  0  0  0  0  0  0  0  0  0
    9.9003   -6.0175    0.0000 C   0  0  0  0  0  0  0  0  0  0  0  0
    9.8987   -6.8329    0.0000 C   0  0  0  0  0  0  0  0  0  0  0  0
   10.6029   -7.2402    0.0000 C   0  0  0  0  0  0  0  0  0  0  0  0
   11.3092   -6.8332    0.0000 C   0  0  0  0  0  0  0  0  0  0  0  0
   11.3068   -6.0147    0.0000 C   0  0  0  0  0  0  0  0  0  0  0  0
   10.6020   -5.6111    0.0000 C   0  0  0  0  0  0  0  0  0  0  0  0
    9.1950   -4.7876    0.0000 C   0  0  0  0  0  0  0  0  0  0  0  0
    9.9027   -4.3790    0.0000 C   0  0  0  0  0  0  0  0  0  0  0  0
    9.9027   -3.5618    0.0000 C   0  0  0  0  0  0  0  0  0  0  0  0
   10.6170   -3.1543    0.0000 C   0  0  0  0  0  0  0  0  0  0  0  0
   10.6174   -2.3378    0.0000 C   0  0  0  0  0  0  0  0  0  0  0  0
    9.9091   -1.9347    0.0000 C   0  0  0  0  0  0  0  0  0  0  0  0
    9.1991   -2.3414    0.0000 C   0  0  0  0  0  0  0  0  0  0  0  0
    9.2022   -3.1565    0.0000 C   0  0  0  0  0  0  0  0  0  0  0  0
   12.0132   -5.6039    0.0000 O   0  0  0  0  0  0  0  0  0  0  0  0
   12.7222   -6.0102    0.0000 C   0  0  0  0  0  0  0  0  0  0  0  0
   12.0173   -7.2411    0.0000 O   0  0  0  0  0  0  0  0  0  0  0  0
   12.0181   -8.0583    0.0000 C   0  0  0  0  0  0  0  0  0  0  0  0
    9.9080   -1.1175    0.0000 C   0  0  0  0  0  0  0  0  0  0  0  0
   10.6152   -0.7079    0.0000 F   0  0  0  0  0  0  0  0  0  0  0  0
    9.1998   -0.7098    0.0000 F   0  0  0  0  0  0  0  0  0  0  0  0
    9.9012   -0.2972    0.0000 F   0  0  0  0  0  0  0  0  0  0  0  0
  1  2  1  0  0  0  0
  1  4  1  0  0  0  0
  2  3  1  0  0  0  0
  3  6  1  0  0  0  0
  5  4  1  0  0  0  0
  5  6  2  0  0  0  0
  6  7  1  0  0  0  0
  7  8  2  0  0  0  0
  8  9  1  0  0  0  0
  9 10  2  0  0  0  0
 10  5  1  0  0  0  0
  4 11  1  1  0  0  0
 11 12  1  0  0  0  0
 12 13  1  0  0  0  0
 13 14  2  0  0  0  0
 14 15  1  0  0  0  0
 15 16  2  0  0  0  0
 16 17  1  0  0  0  0
 17 18  2  0  0  0  0
 18 13  1  0  0  0  0
  9 19  1  0  0  0  0
 19 20  1  0  0  0  0
  8 21  1  0  0  0  0
 21 22  1  0  0  0  0
 16 23  1  0  0  0  0
 23 24  1  0  0  0  0
 23 25  1  0  0  0  0
 23 26  1  0  0  0  0
M  END
> <chembl_id>
CHEMBL3542244

$$$$
$$$$
$$$$
$$$$
$$$$
$$$$
$$$$
$$$$
$$$$
$$$$
$$$$
$$$$

  Mrv0541 05191411272D          

 36 39  0  0  0  0            999 V2000
   14.0945   -8.4732    0.0000 N   0  3  0  0  0  0  0  0  0  0  0  0
   14.0945   -9.2904    0.0000 C   0  0  0  0  0  0  0  0  0  0  0  0
   14.7998   -9.6949    0.0000 C   0  0  0  0  0  0  0  0  0  0  0  0
   14.7998   -8.0605    0.0000 C   0  0  0  0  0  0  0  0  0  0  0  0
   15.5050   -8.4732    0.0000 C   0  0  0  0  0  0  0  0  0  0  0  0
   15.5034   -9.2886    0.0000 C   0  0  0  0  0  0  0  0  0  0  0  0
   16.2077   -9.6959    0.0000 C   0  0  0  0  0  0  0  0  0  0  0  0
   16.9140   -9.2889    0.0000 C   0  0  0  0  0  0  0  0  0  0  0  0
   16.9116   -8.4704    0.0000 C   0  0  0  0  0  0  0  0  0  0  0  0
   16.2068   -8.0668    0.0000 C   0  0  0  0  0  0  0  0  0  0  0  0
   14.7998   -7.2433    0.0000 C   0  0  0  0  0  0  0  0  0  0  0  0
   15.5075   -6.8347    0.0000 C   0  0  0  0  0  0  0  0  0  0  0  0
   15.5075   -6.0175    0.0000 C   0  0  0  0  0  0  0  0  0  0  0  0
   16.2218   -5.6100    0.0000 C   0  0  0  0  0  0  0  0  0  0  0  0
   16.2221   -4.7935    0.0000 C   0  0  0  0  0  0  0  0  0  0  0  0
   15.5139   -4.3904    0.0000 C   0  0  0  0  0  0  0  0  0  0  0  0
   14.8038   -4.7971    0.0000 C   0  0  0  0  0  0  0  0  0  0  0  0
   14.8070   -5.6122    0.0000 C   0  0  0  0  0  0  0  0  0  0  0  0
   13.3856   -8.0667    0.0000 C   0  0  2  0  0  0  0  0  0  0  0  0
   13.3832   -7.2495    0.0000 C   0  0  0  0  0  0  0  0  0  0  0  0
   12.6791   -8.4773    0.0000 C   0  0  0  0  0  0  0  0  0  0  0  0
   11.9702   -8.0708    0.0000 N   0  0  0  0  0  0  0  0  0  0  0  0
   12.6815   -9.2945    0.0000 O   0  0  0  0  0  0  0  0  0  0  0  0
   11.2637   -8.4815    0.0000 C   0  0  0  0  0  0  0  0  0  0  0  0
   14.0895   -6.8405    0.0000 C   0  0  0  0  0  0  0  0  0  0  0  0
   14.0875   -6.0241    0.0000 C   0  0  0  0  0  0  0  0  0  0  0  0
   13.3780   -5.6167    0.0000 C   0  0  0  0  0  0  0  0  0  0  0  0
   12.6692   -6.0318    0.0000 C   0  0  0  0  0  0  0  0  0  0  0  0
   12.6747   -6.8469    0.0000 C   0  0  0  0  0  0  0  0  0  0  0  0
   17.6180   -8.0596    0.0000 O   0  0  0  0  0  0  0  0  0  0  0  0
   18.3270   -8.4659    0.0000 C   0  0  0  0  0  0  0  0  0  0  0  0
   17.6221   -9.6968    0.0000 O   0  0  0  0  0  0  0  0  0  0  0  0
   15.5128   -3.5732    0.0000 C   0  0  0  0  0  0  0  0  0  0  0  0
   16.2199   -3.1636    0.0000 F   0  0  0  0  0  0  0  0  0  0  0  0
   14.8045   -3.1655    0.0000 F   0  0  0  0  0  0  0  0  0  0  0  0
   15.5060   -2.7529    0.0000 F   0  0  0  0  0  0  0  0  0  0  0  0
  1  2  1  0  0  0  0
  1  4  2  0  0  0  0
  2  3  2  0  0  0  0
  3  6  1  0  0  0  0
  5  4  1  0  0  0  0
  5  6  2  0  0  0  0
  6  7  1  0  0  0  0
  7  8  2  0  0  0  0
  8  9  1  0  0  0  0
  9 10  2  0  0  0  0
 10  5  1  0  0  0  0
  4 11  1  0  0  0  0
 11 12  1  0  0  0  0
 12 13  1  0  0  0  0
 13 14  2  0  0  0  0
 14 15  1  0  0  0  0
 15 16  2  0  0  0  0
 16 17  1  0  0  0  0
 17 18  2  0  0  0  0
 18 13  1  0  0  0  0
  1 19  1  0  0  0  0
 19 20  1  1  0  0  0
 19 21  1  0  0  0  0
 21 22  1  0  0  0  0
 21 23  2  0  0  0  0
 22 24  1  0  0  0  0
 20 25  2  0  0  0  0
 25 26  1  0  0  0  0
 26 27  2  0  0  0  0
 27 28  1  0  0  0  0
 28 29  2  0  0  0  0
 29 20  1  0  0  0  0
  9 30  1  0  0  0  0
 30 31  1  0  0  0  0
  8 32  1  0  0  0  0
 16 33  1  0  0  0  0
 33 34  1  0  0  0  0
 33 35  1  0  0  0  0
 33 36  1  0  0  0  0
M  CHG  1   1   1
M  END
> <chembl_id>
CHEMBL3542266

$$$$

  Mrv0541 05191417002D          

 27 29  0  0  0  0            999 V2000
   12.8041   -7.3488    0.0000 N   0  0  0  0  0  0  0  0  0  0  0  0
   12.8041   -8.1746    0.0000 C   0  0  0  0  0  0  0  0  0  0  0  0
   13.5168   -8.5833    0.0000 C   0  0  0  0  0  0  0  0  0  0  0  0
   13.5168   -6.9318    0.0000 C   0  0  2  0  0  0  0  0  0  0  0  0
   14.2295   -7.3488    0.0000 C   0  0  0  0  0  0  0  0  0  0  0  0
   14.2279   -8.1728    0.0000 C   0  0  0  0  0  0  0  0  0  0  0  0
   14.9395   -8.5843    0.0000 C   0  0  0  0  0  0  0  0  0  0  0  0
   15.6533   -8.1731    0.0000 C   0  0  0  0  0  0  0  0  0  0  0  0
   15.6508   -7.3460    0.0000 C   0  0  0  0  0  0  0  0  0  0  0  0
   14.9386   -6.9381    0.0000 C   0  0  0  0  0  0  0  0  0  0  0  0
   13.5168   -6.1059    0.0000 C   0  0  0  0  0  0  0  0  0  0  0  0
   14.2320   -5.6930    0.0000 C   0  0  0  0  0  0  0  0  0  0  0  0
   14.2320   -4.8672    0.0000 C   0  0  0  0  0  0  0  0  0  0  0  0
   14.9538   -4.4553    0.0000 C   0  0  0  0  0  0  0  0  0  0  0  0
   14.9541   -3.6303    0.0000 C   0  0  0  0  0  0  0  0  0  0  0  0
   14.2384   -3.2229    0.0000 C   0  0  0  0  0  0  0  0  0  0  0  0
   13.5208   -3.6340    0.0000 C   0  0  0  0  0  0  0  0  0  0  0  0
   13.5241   -4.4577    0.0000 C   0  0  0  0  0  0  0  0  0  0  0  0
   16.3647   -6.9307    0.0000 O   0  0  0  0  0  0  0  0  0  0  0  0
   17.0812   -7.3414    0.0000 C   0  0  0  0  0  0  0  0  0  0  0  0
   16.3688   -8.5853    0.0000 O   0  0  0  0  0  0  0  0  0  0  0  0
   16.3696   -9.4111    0.0000 C   0  0  0  0  0  0  0  0  0  0  0  0
   14.2373   -2.3971    0.0000 C   0  0  0  0  0  0  0  0  0  0  0  0
   14.9520   -1.9833    0.0000 F   0  0  0  0  0  0  0  0  0  0  0  0
   13.5216   -1.9852    0.0000 F   0  0  0  0  0  0  0  0  0  0  0  0
   14.2304   -1.5681    0.0000 F   0  0  0  0  0  0  0  0  0  0  0  0
   14.9471   -6.1059    0.0000 O   0  0  0  0  0  0  0  0  0  0  0  0
  1  2  1  0  0  0  0
  1  4  1  0  0  0  0
  2  3  1  0  0  0  0
  3  6  1  0  0  0  0
  5  4  1  0  0  0  0
  5  6  2  0  0  0  0
  6  7  1  0  0  0  0
  7  8  2  0  0  0  0
  8  9  1  0  0  0  0
  9 10  2  0  0  0  0
 10  5  1  0  0  0  0
  4 11  1  1  0  0  0
 11 12  1  0  0  0  0
 12 13  1  0  0  0  0
 13 14  2  0  0  0  0
 14 15  1  0  0  0  0
 15 16  2  0  0  0  0
 16 17  1  0  0  0  0
 17 18  2  0  0  0  0
 18 13  1  0  0  0  0
  9 19  1  0  0  0  0
 19 20  1  0  0  0  0
  8 21  1  0  0  0  0
 21 22  1  0  0  0  0
 16 23  1  0  0  0  0
 23 24  1  0  0  0  0
 23 25  1  0  0  0  0
 23 26  1  0  0  0  0
 12 27  1  0  0  0  0
M  END
> <chembl_id>
CHEMBL3542258

$$$$

  Mrv0541 05191411302D          

 37 40  0  0  0  0            999 V2000
   14.0945   -8.4732    0.0000 N   0  0  0  0  0  0  0  0  0  0  0  0
   14.0945   -9.2904    0.0000 C   0  0  0  0  0  0  0  0  0  0  0  0
   14.7998   -9.6949    0.0000 C   0  0  0  0  0  0  0  0  0  0  0  0
   14.7998   -8.0605    0.0000 C   0  0  2  0  0  0  0  0  0  0  0  0
   15.5050   -8.4732    0.0000 C   0  0  0  0  0  0  0  0  0  0  0  0
   15.5034   -9.2886    0.0000 C   0  0  0  0  0  0  0  0  0  0  0  0
   16.2077   -9.6959    0.0000 C   0  0  0  0  0  0  0  0  0  0  0  0
   16.9140   -9.2889    0.0000 C   0  0  0  0  0  0  0  0  0  0  0  0
   16.9116   -8.4704    0.0000 C   0  0  0  0  0  0  0  0  0  0  0  0
   16.2068   -8.0668    0.0000 C   0  0  0  0  0  0  0  0  0  0  0  0
   14.7998   -7.2433    0.0000 C   0  0  0  0  0  0  0  0  0  0  0  0
   15.5075   -6.8347    0.0000 C   0  0  0  0  0  0  0  0  0  0  0  0
   15.5075   -6.0175    0.0000 C   0  0  0  0  0  0  0  0  0  0  0  0
   16.2218   -5.6100    0.0000 C   0  0  0  0  0  0  0  0  0  0  0  0
   16.2221   -4.7935    0.0000 C   0  0  0  0  0  0  0  0  0  0  0  0
   15.5139   -4.3904    0.0000 C   0  0  0  0  0  0  0  0  0  0  0  0
   14.8038   -4.7971    0.0000 C   0  0  0  0  0  0  0  0  0  0  0  0
   14.8070   -5.6122    0.0000 C   0  0  0  0  0  0  0  0  0  0  0  0
   13.3856   -8.0667    0.0000 C   0  0  2  0  0  0  0  0  0  0  0  0
   13.3832   -7.2495    0.0000 C   0  0  0  0  0  0  0  0  0  0  0  0
   12.6791   -8.4773    0.0000 C   0  0  0  0  0  0  0  0  0  0  0  0
   11.9702   -8.0708    0.0000 N   0  0  0  0  0  0  0  0  0  0  0  0
   12.6815   -9.2945    0.0000 O   0  0  0  0  0  0  0  0  0  0  0  0
   14.0895   -6.8405    0.0000 C   0  0  0  0  0  0  0  0  0  0  0  0
   14.0875   -6.0241    0.0000 C   0  0  0  0  0  0  0  0  0  0  0  0
   13.3780   -5.6167    0.0000 C   0  0  0  0  0  0  0  0  0  0  0  0
   12.6692   -6.0318    0.0000 C   0  0  0  0  0  0  0  0  0  0  0  0
   12.6747   -6.8469    0.0000 C   0  0  0  0  0  0  0  0  0  0  0  0
   17.6180   -8.0596    0.0000 O   0  0  0  0  0  0  0  0  0  0  0  0
   18.3270   -8.4659    0.0000 C   0  0  0  0  0  0  0  0  0  0  0  0
   17.6221   -9.6968    0.0000 O   0  0  0  0  0  0  0  0  0  0  0  0
   15.5128   -3.5732    0.0000 C   0  0  0  0  0  0  0  0  0  0  0  0
   16.2199   -3.1636    0.0000 F   0  0  0  0  0  0  0  0  0  0  0  0
   14.8045   -3.1655    0.0000 F   0  0  0  0  0  0  0  0  0  0  0  0
   15.5060   -2.7529    0.0000 F   0  0  0  0  0  0  0  0  0  0  0  0
   16.2152   -7.2433    0.0000 O   0  0  0  0  0  0  0  0  0  0  0  0
   17.6229  -10.5140    0.0000 C   0  0  0  0  0  0  0  0  0  0  0  0
  1  2  1  0  0  0  0
  1  4  1  0  0  0  0
  2  3  1  0  0  0  0
  3  6  1  0  0  0  0
  5  4  1  0  0  0  0
  5  6  2  0  0  0  0
  6  7  1  0  0  0  0
  7  8  2  0  0  0  0
  8  9  1  0  0  0  0
  9 10  2  0  0  0  0
 10  5  1  0  0  0  0
  4 11  1  1  0  0  0
 11 12  1  0  0  0  0
 12 13  1  0  0  0  0
 13 14  2  0  0  0  0
 14 15  1  0  0  0  0
 15 16  2  0  0  0  0
 16 17  1  0  0  0  0
 17 18  2  0  0  0  0
 18 13  1  0  0  0  0
  1 19  1  0  0  0  0
 19 20  1  1  0  0  0
 19 21  1  0  0  0  0
 21 22  1  0  0  0  0
 21 23  2  0  0  0  0
 20 24  2  0  0  0  0
 24 25  1  0  0  0  0
 25 26  2  0  0  0  0
 26 27  1  0  0  0  0
 27 28  2  0  0  0  0
 28 20  1  0  0  0  0
  9 29  1  0  0  0  0
 29 30  1  0  0  0  0
  8 31  1  0  0  0  0
 16 32  1  0  0  0  0
 32 33  1  0  0  0  0
 32 34  1  0  0  0  0
 32 35  1  0  0  0  0
 12 36  1  0  0  0  0
 31 37  1  0  0  0  0
M  END
> <chembl_id>
CHEMBL3542187

$$$$

  Mrv0541 05191411242D          

 26 28  0  0  0  0            999 V2000
   12.6706   -7.2722    0.0000 N   0  0  0  0  0  0  0  0  0  0  0  0
   12.6706   -8.0894    0.0000 C   0  0  0  0  0  0  0  0  0  0  0  0
   13.3759   -8.4938    0.0000 C   0  0  0  0  0  0  0  0  0  0  0  0
   13.3759   -6.8595    0.0000 C   0  0  0  0  0  0  0  0  0  0  0  0
   14.0812   -7.2722    0.0000 C   0  0  0  0  0  0  0  0  0  0  0  0
   14.0796   -8.0876    0.0000 C   0  0  0  0  0  0  0  0  0  0  0  0
   14.7838   -8.4948    0.0000 C   0  0  0  0  0  0  0  0  0  0  0  0
   15.4901   -8.0879    0.0000 C   0  0  0  0  0  0  0  0  0  0  0  0
   15.4877   -7.2694    0.0000 C   0  0  0  0  0  0  0  0  0  0  0  0
   14.7829   -6.8658    0.0000 C   0  0  0  0  0  0  0  0  0  0  0  0
   13.3759   -6.0423    0.0000 C   0  0  0  0  0  0  0  0  0  0  0  0
   14.0836   -5.6337    0.0000 C   0  0  0  0  0  0  0  0  0  0  0  0
   14.0836   -4.8165    0.0000 C   0  0  0  0  0  0  0  0  0  0  0  0
   14.7979   -4.4089    0.0000 C   0  0  0  0  0  0  0  0  0  0  0  0
   14.7982   -3.5925    0.0000 C   0  0  0  0  0  0  0  0  0  0  0  0
   14.0900   -3.1893    0.0000 C   0  0  0  0  0  0  0  0  0  0  0  0
   13.3799   -3.5961    0.0000 C   0  0  0  0  0  0  0  0  0  0  0  0
   13.3831   -4.4112    0.0000 C   0  0  0  0  0  0  0  0  0  0  0  0
   16.1941   -6.8585    0.0000 O   0  0  0  0  0  0  0  0  0  0  0  0
   16.9031   -7.2649    0.0000 C   0  0  0  0  0  0  0  0  0  0  0  0
   16.1982   -8.4958    0.0000 O   0  0  0  0  0  0  0  0  0  0  0  0
   16.1990   -9.3130    0.0000 C   0  0  0  0  0  0  0  0  0  0  0  0
   14.0889   -2.3721    0.0000 C   0  0  0  0  0  0  0  0  0  0  0  0
   14.7961   -1.9626    0.0000 F   0  0  0  0  0  0  0  0  0  0  0  0
   13.3806   -1.9645    0.0000 F   0  0  0  0  0  0  0  0  0  0  0  0
   14.0821   -1.5518    0.0000 F   0  0  0  0  0  0  0  0  0  0  0  0
  1  2  1  0  0  0  0
  1  4  2  0  0  0  0
  2  3  2  0  0  0  0
  3  6  1  0  0  0  0
  5  4  1  0  0  0  0
  5  6  2  0  0  0  0
  6  7  1  0  0  0  0
  7  8  2  0  0  0  0
  8  9  1  0  0  0  0
  9 10  2  0  0  0  0
 10  5  1  0  0  0  0
  4 11  1  0  0  0  0
 11 12  1  0  0  0  0
 12 13  1  0  0  0  0
 13 14  2  0  0  0  0
 14 15  1  0  0  0  0
 15 16  2  0  0  0  0
 16 17  1  0  0  0  0
 17 18  2  0  0  0  0
 18 13  1  0  0  0  0
  9 19  1  0  0  0  0
 19 20  1  0  0  0  0
  8 21  1  0  0  0  0
 21 22  1  0  0  0  0
 16 23  1  0  0  0  0
 23 24  1  0  0  0  0
 23 25  1  0  0  0  0
 23 26  1  0  0  0  0
M  END
> <chembl_id>
CHEMBL3542257

$$$$

  Mrv0541 05191411222D          

 25 27  0  0  0  0            999 V2000
   15.3863  -11.2178    0.0000 N   0  0  0  0  0  0  0  0  0  0  0  0
   15.3863  -12.0350    0.0000 C   0  0  0  0  0  0  0  0  0  0  0  0
   16.0916  -12.4395    0.0000 C   0  0  0  0  0  0  0  0  0  0  0  0
   16.0916  -10.8051    0.0000 C   0  0  2  0  0  0  0  0  0  0  0  0
   16.7969  -11.2178    0.0000 C   0  0  0  0  0  0  0  0  0  0  0  0
   16.7953  -12.0332    0.0000 C   0  0  0  0  0  0  0  0  0  0  0  0
   17.4995  -12.4405    0.0000 C   0  0  0  0  0  0  0  0  0  0  0  0
   18.2058  -12.0335    0.0000 C   0  0  0  0  0  0  0  0  0  0  0  0
   18.2034  -11.2150    0.0000 C   0  0  0  0  0  0  0  0  0  0  0  0
   17.4986  -10.8114    0.0000 C   0  0  0  0  0  0  0  0  0  0  0  0
   16.0916   -9.9879    0.0000 C   0  0  0  0  0  0  0  0  0  0  0  0
   16.7993   -9.5793    0.0000 C   0  0  0  0  0  0  0  0  0  0  0  0
   16.7993   -8.7621    0.0000 C   0  0  0  0  0  0  0  0  0  0  0  0
   17.5136   -8.3546    0.0000 C   0  0  0  0  0  0  0  0  0  0  0  0
   17.5140   -7.5381    0.0000 C   0  0  0  0  0  0  0  0  0  0  0  0
   16.8057   -7.1350    0.0000 C   0  0  0  0  0  0  0  0  0  0  0  0
   16.0957   -7.5417    0.0000 C   0  0  0  0  0  0  0  0  0  0  0  0
   16.0988   -8.3568    0.0000 C   0  0  0  0  0  0  0  0  0  0  0  0
   18.9098  -10.8042    0.0000 O   0  0  0  0  0  0  0  0  0  0  0  0
   18.9139  -12.4414    0.0000 O   0  0  0  0  0  0  0  0  0  0  0  0
   16.8046   -6.3178    0.0000 C   0  0  0  0  0  0  0  0  0  0  0  0
   17.5118   -5.9082    0.0000 F   0  0  0  0  0  0  0  0  0  0  0  0
   16.0964   -5.9101    0.0000 F   0  0  0  0  0  0  0  0  0  0  0  0
   16.7978   -5.4975    0.0000 F   0  0  0  0  0  0  0  0  0  0  0  0
   19.6188  -11.2105    0.0000 C   0  0  0  0  0  0  0  0  0  0  0  0
  1  2  1  0  0  0  0
  1  4  1  0  0  0  0
  2  3  1  0  0  0  0
  3  6  1  0  0  0  0
  5  4  1  0  0  0  0
  5  6  2  0  0  0  0
  6  7  1  0  0  0  0
  7  8  2  0  0  0  0
  8  9  1  0  0  0  0
  9 10  2  0  0  0  0
 10  5  1  0  0  0  0
  4 11  1  1  0  0  0
 11 12  1  0  0  0  0
 12 13  1  0  0  0  0
 13 14  2  0  0  0  0
 14 15  1  0  0  0  0
 15 16  2  0  0  0  0
 16 17  1  0  0  0  0
 17 18  2  0  0  0  0
 18 13  1  0  0  0  0
  9 19  1  0  0  0  0
  8 20  1  0  0  0  0
 16 21  1  0  0  0  0
 21 22  1  0  0  0  0
 21 23  1  0  0  0  0
 21 24  1  0  0  0  0
 19 25  1  0  0  0  0
M  END
> <chembl_id>
CHEMBL3542256

$$$$

  Mrv0541 05191414172D          

 36 39  0  0  0  0            999 V2000
   13.8427   -9.0345    0.0000 N   0  3  0  0  0  0  0  0  0  0  0  0
   13.8427   -9.8517    0.0000 C   0  0  0  0  0  0  0  0  0  0  0  0
   14.5480  -10.2562    0.0000 C   0  0  0  0  0  0  0  0  0  0  0  0
   14.5480   -8.6218    0.0000 C   0  0  0  0  0  0  0  0  0  0  0  0
   15.2533   -9.0345    0.0000 C   0  0  0  0  0  0  0  0  0  0  0  0
   15.2517   -9.8499    0.0000 C   0  0  0  0  0  0  0  0  0  0  0  0
   15.9559  -10.2572    0.0000 C   0  0  0  0  0  0  0  0  0  0  0  0
   16.6622   -9.8502    0.0000 C   0  0  0  0  0  0  0  0  0  0  0  0
   16.6598   -9.0317    0.0000 C   0  0  0  0  0  0  0  0  0  0  0  0
   15.9550   -8.6281    0.0000 C   0  0  0  0  0  0  0  0  0  0  0  0
   14.5480   -7.8046    0.0000 C   0  0  0  0  0  0  0  0  0  0  0  0
   15.2557   -7.3960    0.0000 C   0  0  0  0  0  0  0  0  0  0  0  0
   15.2557   -6.5788    0.0000 C   0  0  0  0  0  0  0  0  0  0  0  0
   15.9700   -6.1713    0.0000 C   0  0  0  0  0  0  0  0  0  0  0  0
   15.9704   -5.3548    0.0000 C   0  0  0  0  0  0  0  0  0  0  0  0
   15.2621   -4.9517    0.0000 C   0  0  0  0  0  0  0  0  0  0  0  0
   14.5521   -5.3584    0.0000 C   0  0  0  0  0  0  0  0  0  0  0  0
   14.5552   -6.1735    0.0000 C   0  0  0  0  0  0  0  0  0  0  0  0
   13.1338   -8.6280    0.0000 C   0  0  2  0  0  0  0  0  0  0  0  0
   13.1314   -7.8108    0.0000 C   0  0  0  0  0  0  0  0  0  0  0  0
   12.4273   -9.0387    0.0000 C   0  0  0  0  0  0  0  0  0  0  0  0
   11.7184   -8.6321    0.0000 N   0  0  0  0  0  0  0  0  0  0  0  0
   12.4297   -9.8558    0.0000 O   0  0  0  0  0  0  0  0  0  0  0  0
   13.8377   -7.4018    0.0000 C   0  0  0  0  0  0  0  0  0  0  0  0
   13.8357   -6.5854    0.0000 C   0  0  0  0  0  0  0  0  0  0  0  0
   13.1263   -6.1780    0.0000 C   0  0  0  0  0  0  0  0  0  0  0  0
   12.4174   -6.5931    0.0000 C   0  0  0  0  0  0  0  0  0  0  0  0
   12.4229   -7.4082    0.0000 C   0  0  0  0  0  0  0  0  0  0  0  0
   17.3662   -8.6209    0.0000 O   0  0  0  0  0  0  0  0  0  0  0  0
   18.0753   -9.0272    0.0000 C   0  0  0  0  0  0  0  0  0  0  0  0
   17.3703  -10.2581    0.0000 O   0  0  0  0  0  0  0  0  0  0  0  0
   17.3711  -11.0753    0.0000 C   0  0  0  0  0  0  0  0  0  0  0  0
   15.2610   -4.1345    0.0000 C   0  0  0  0  0  0  0  0  0  0  0  0
   15.9682   -3.7249    0.0000 F   0  0  0  0  0  0  0  0  0  0  0  0
   14.5528   -3.7268    0.0000 F   0  0  0  0  0  0  0  0  0  0  0  0
   15.2542   -3.3142    0.0000 F   0  0  0  0  0  0  0  0  0  0  0  0
  1  2  1  0  0  0  0
  1  4  2  0  0  0  0
  2  3  2  0  0  0  0
  3  6  1  0  0  0  0
  5  4  1  0  0  0  0
  5  6  2  0  0  0  0
  6  7  1  0  0  0  0
  7  8  2  0  0  0  0
  8  9  1  0  0  0  0
  9 10  2  0  0  0  0
 10  5  1  0  0  0  0
  4 11  1  0  0  0  0
 11 12  1  0  0  0  0
 12 13  1  0  0  0  0
 13 14  2  0  0  0  0
 14 15  1  0  0  0  0
 15 16  2  0  0  0  0
 16 17  1  0  0  0  0
 17 18  2  0  0  0  0
 18 13  1  0  0  0  0
  1 19  1  0  0  0  0
 19 20  1  1  0  0  0
 19 21  1  0  0  0  0
 21 22  1  0  0  0  0
 21 23  2  0  0  0  0
 20 24  2  0  0  0  0
 24 25  1  0  0  0  0
 25 26  2  0  0  0  0
 26 27  1  0  0  0  0
 27 28  2  0  0  0  0
 28 20  1  0  0  0  0
  9 29  1  0  0  0  0
 29 30  1  0  0  0  0
  8 31  1  0  0  0  0
 31 32  1  0  0  0  0
 16 33  1  0  0  0  0
 33 34  1  0  0  0  0
 33 35  1  0  0  0  0
 33 36  1  0  0  0  0
M  CHG  1   1   1
M  END
> <chembl_id>
CHEMBL3542243

$$$$
