
  SciTegic12221705272D

 32 36  0  0  0  0            999 V2000
    2.1296   -8.2792    0.0000 F   0  0
    2.5424   -8.9891    0.0000 C   0  0
    2.9508   -8.2767    0.0000 F   0  0
    0.4402  -11.8657    0.0000 C   0  0
    0.4391  -12.6853    0.0000 C   0  0
    1.1471  -13.0942    0.0000 C   0  0
    1.1453  -11.4569    0.0000 C   0  0
    1.8539  -11.8621    0.0000 C   0  0
    1.8573  -12.6873    0.0000 C   0  0
    2.5629  -11.4444    0.0000 C   0  0
    3.2833  -12.6815    0.0000 N   0  0
    2.5677  -13.0946    0.0000 N   0  0
    2.7394  -13.9029    0.0000 N   0  0
    3.5613  -13.9893    0.0000 C   0  0
    3.8973  -13.2344    0.0000 C   0  0
    3.2742  -11.8466    0.0000 O   0  0
    2.5556  -10.6272    0.0000 N   0  0
    3.2601  -10.2102    0.0000 C   0  0
    3.2548   -9.3966    0.0000 C   0  0
    1.8394   -9.4042    0.0000 C   0  0
    1.8431  -10.2240    0.0000 C   0  0
    3.9604   -8.9843    0.0000 O   0  0
    4.6702   -9.3892    0.0000 C   0  0
    4.6694  -10.2036    0.0000 N   0  0
    5.3784  -10.6084    0.0000 C   0  0
    5.3684   -8.9735    0.0000 N   0  0
    6.0780   -9.3746    0.0000 C   0  0
    6.0810  -10.1925    0.0000 C   0  0
    6.7896  -10.5971    0.0000 C   0  0
    7.4957  -10.1849    0.0000 C   0  0
    7.4888   -9.3640    0.0000 C   0  0
    6.7796   -8.9631    0.0000 C   0  0
  2  1  1  0
  3  2  1  0
  4  5  2  0
  5  6  1  0
  6  9  2  0
  8  7  2  0
  7  4  1  0
  8  9  1  0
  8 10  1  0
  9 12  1  0
 11 12  1  0
 12 13  1  0
 13 14  2  0
 14 15  1  0
 15 11  2  0
 10 16  2  0
 10 17  1  0
 17 18  1  0
 17 21  1  0
 18 19  1  0
 19  2  1  0
  2 20  1  0
 20 21  1  0
 19 22  1  0
 22 23  1  0
 23 24  2  0
 24 25  1  0
 25 28  2  0
 27 26  2  0
 26 23  1  0
 27 28  1  0
 28 29  1  0
 29 30  2  0
 30 31  1  0
 31 32  2  0
 32 27  1  0
M  END
> <chembl_id>
CHEMBL3946473

$$$$

  SciTegic12211723152D

 30 34  0  0  0  0            999 V2000
   22.1632  -14.9323    0.0000 F   0  0
   22.5759  -15.6422    0.0000 C   0  0
   22.9844  -14.9298    0.0000 F   0  0
   20.4738  -18.5188    0.0000 C   0  0
   20.4726  -19.3384    0.0000 C   0  0
   21.1789  -18.1100    0.0000 C   0  0
   21.8875  -18.5152    0.0000 C   0  0
   22.5965  -18.0974    0.0000 C   0  0
   23.3078  -18.4997    0.0000 O   0  0
   22.5892  -17.2803    0.0000 N   0  0
   23.2937  -16.8633    0.0000 C   0  0
   23.2884  -16.0497    0.0000 C   0  0
   21.8730  -16.0573    0.0000 C   0  0
   21.8767  -16.8771    0.0000 C   0  0
   23.9939  -15.6374    0.0000 O   0  0
   24.7038  -16.0423    0.0000 C   0  0
   24.7030  -16.8567    0.0000 C   0  0
   25.4120  -17.2615    0.0000 C   0  0
   25.4020  -15.6266    0.0000 N   0  0
   26.1116  -16.0277    0.0000 C   0  0
   26.1145  -16.8456    0.0000 C   0  0
   26.8231  -17.2501    0.0000 C   0  0
   27.5293  -16.8380    0.0000 C   0  0
   27.5224  -16.0171    0.0000 C   0  0
   26.8132  -15.6162    0.0000 C   0  0
   21.8888  -19.3366    0.0000 N   0  0
   21.1799  -19.7452    0.0000 C   0  0
   21.3493  -20.5457    0.0000 C   0  0
   22.1630  -20.6320    0.0000 N   0  0
   22.4964  -19.8847    0.0000 C   0  0
  2  1  1  0
  3  2  1  0
  4  5  2  0
  5 27  1  0
  7  6  2  0
  6  4  1  0
  7 26  1  0
  7  8  1  0
  8  9  2  0
  8 10  1  0
 10 11  1  0
 10 14  1  0
 11 12  1  0
 12  2  1  0
  2 13  1  0
 13 14  1  0
 12 15  1  0
 15 16  1  0
 16 17  2  0
 17 18  1  0
 18 21  2  0
 20 19  2  0
 19 16  1  0
 20 21  1  0
 21 22  1  0
 22 23  2  0
 23 24  1  0
 24 25  2  0
 25 20  1  0
 26 27  1  0
 27 28  2  0
 28 29  1  0
 29 30  2  0
 30 26  1  0
M  END
> <chembl_id>
CHEMBL3936875

$$$$

  SciTegic12221707502D

 28 31  0  0  0  0            999 V2000
    2.3566   -7.4538    0.0000 F   0  0
    2.7694   -8.1637    0.0000 C   0  0
    3.1778   -7.4513    0.0000 F   0  0
    0.6672  -11.0403    0.0000 C   0  0
    0.6660  -11.8598    0.0000 C   0  0
    1.3741  -12.2688    0.0000 C   0  0
    1.3723  -10.6314    0.0000 C   0  0
    2.0809  -11.0367    0.0000 C   0  0
    2.0843  -11.8619    0.0000 C   0  0
    2.7899  -10.6189    0.0000 C   0  0
    3.5012  -11.0212    0.0000 O   0  0
    2.7826   -9.8017    0.0000 N   0  0
    3.4871   -9.3848    0.0000 C   0  0
    3.4818   -8.5712    0.0000 C   0  0
    2.0664   -8.5787    0.0000 C   0  0
    2.0701   -9.3985    0.0000 C   0  0
    4.1874   -8.1589    0.0000 O   0  0
    4.8972   -8.5637    0.0000 C   0  0
    4.8964   -9.3782    0.0000 C   0  0
    5.6054   -9.7829    0.0000 C   0  0
    5.5954   -8.1481    0.0000 N   0  0
    6.3050   -8.5492    0.0000 C   0  0
    6.3080   -9.3670    0.0000 C   0  0
    7.0166   -9.7716    0.0000 C   0  0
    7.7227   -9.3595    0.0000 C   0  0
    7.7158   -8.5385    0.0000 C   0  0
    7.0066   -8.1377    0.0000 C   0  0
    2.7922  -12.2702    0.0000 C   0  0
  2  1  1  0
  3  2  1  0
  4  5  2  0
  5  6  1  0
  6  9  2  0
  8  7  2  0
  7  4  1  0
  8  9  1  0
  8 10  1  0
 10 11  2  0
 10 12  1  0
 12 13  1  0
 12 16  1  0
 13 14  1  0
 14  2  1  0
  2 15  1  0
 15 16  1  0
 14 17  1  0
 17 18  1  0
 18 19  2  0
 19 20  1  0
 20 23  2  0
 22 21  2  0
 21 18  1  0
 22 23  1  0
 23 24  1  0
 24 25  2  0
 25 26  1  0
 26 27  2  0
 27 22  1  0
  9 28  1  0
M  END
> <chembl_id>
CHEMBL3950125

$$$$

  SciTegic09081514172D

 32 36  0  0  0  0            999 V2000
   -7.5309   -3.6159    0.0000 O   0  0
   -8.8267   -6.5274    0.0000 C   0  0
   -3.9122    1.4966    0.0000 O   0  0
   -5.2061   -0.7556    0.0000 C   0  0
   -2.6111    0.7486    0.0000 C   0  0
   -8.0659   -7.8201    0.0000 C   0  0
   -6.5027   -1.5098    0.0000 N   0  0
   -6.4946   -3.0107    0.0000 C   0  0
   -3.8771   -5.9962    0.0000 C   0  0
   -6.4758   -6.0141    0.0000 N   0  0
   -6.5125    1.4901    0.0000 C   0  0
   -1.2964    1.4973    0.0000 N   0  0
   -2.5933   -3.7375    0.0000 C   0  0
   -5.1914   -3.7550    0.0000 C   0  0
   -7.8091    0.7359    0.0000 C   0  0
   -1.2964   -1.4973    0.0000 C   0  0
   -5.2109    0.7445    0.0000 C   0  0  1  0  0  0
   -2.5832   -5.2374    0.0000 C   0  0
   -6.6013   -7.4961    0.0000 N   0  0
   -5.1812   -5.2549    0.0000 C   0  0
   -7.8323   -5.4044    0.0000 N   0  0
   -2.6111   -0.7486    0.0000 C   0  0
   -3.8973   -2.9962    0.0000 C   0  0
   -7.8042   -0.7641    0.0000 C   0  0
    0.0000   -0.7486    0.0000 C   0  0
    0.0000    0.7486    0.0000 C   0  0
    1.2964    1.4973    0.0000 C   0  0
    2.5929    0.7486    0.0000 C   0  0
    2.5929   -0.7486    0.0000 C   0  0
    1.2964   -1.4973    0.0000 C   0  0
   -5.4613    2.0689    0.0000 F   0  0
   -7.5674    2.0621    0.0000 F   0  0
 17  3  1  1
 20 14  2  0
 13 18  1  0
  7 24  1  0
 21 10  1  0
 10 19  1  0
  5 12  1  0
 23 13  2  0
  5 22  2  0
 16 22  1  0
  6  2  1  0
  4 17  1  0
 19  6  2  0
  8  1  2  0
  3  5  1  0
 18  9  2  0
 14  8  1  0
 11 15  1  0
 12 26  2  0
  7  4  1  0
 20 10  1  0
  9 20  1  0
 15 24  1  0
 14 23  1  0
 17 11  1  0
  2 21  2  0
  8  7  1  0
 25 16  2  0
 25 26  1  0
 26 27  1  0
 27 28  2  0
 28 29  1  0
 29 30  2  0
 30 25  1  0
 11 31  1  0
 11 32  1  0
M  END
> <chembl_id>
CHEMBL3394848

$$$$

  SciTegic12231509382D

 24 27  0  0  0  0            999 V2000
    2.5152  -17.1375    0.0000 C   0  0
    2.5141  -17.9648    0.0000 C   0  0
    3.2289  -18.3777    0.0000 C   0  0
    3.2271  -16.7247    0.0000 N   0  0
    3.9425  -17.1338    0.0000 C   0  0
    3.9432  -17.9607    0.0000 C   0  0
    4.6585  -18.3716    0.0000 N   0  0
    5.3736  -17.9569    0.0000 C   0  0
    5.3688  -17.1269    0.0000 C   0  0
    4.6529  -16.7197    0.0000 C   0  0
    4.6485  -15.8947    0.0000 N   0  0
    5.3608  -15.4784    0.0000 C   0  0
    5.3564  -14.6534    0.0000 N   0  0
    6.0775  -15.8871    0.0000 O   0  0
    6.0687  -14.2371    0.0000 C   0  0
    6.7806  -14.6487    0.0000 C   0  0
    6.7668  -12.9987    0.0000 C   0  0
    6.0580  -13.4166    0.0000 C   0  0
    7.4885  -13.4072    0.0000 C   0  0
    7.4967  -14.2322    0.0000 C   0  0
    8.2838  -14.4794    0.0000 O   0  0
    8.7622  -13.8071    0.0000 C   0  0
    8.2706  -13.1445    0.0000 N   0  0
    9.5871  -13.7989    0.0000 C   0  0
  2  3  1  0
 11 12  1  0
  5  6  1  0
 12 13  1  0
  3  6  2  0
 12 14  2  0
  6  7  1  0
 13 15  1  0
  1  2  2  0
 15 16  2  0
 16 20  1  0
  7  8  2  0
 19 17  1  0
  5  4  2  0
 17 18  2  0
 18 15  1  0
 19 20  2  0
  8  9  1  0
  4  1  1  0
  9 10  2  0
 10  5  1  0
 20 21  1  0
 21 22  1  0
 22 23  2  0
 23 19  1  0
 10 11  1  0
 22 24  1  0
M  END
> <chembl_id>
CHEMBL291536

$$$$

  SciTegic12211701592D

 31 35  0  0  0  0            999 V2000
    1.6550  -15.1222    0.0000 F   0  0
    2.0677  -15.8320    0.0000 C   0  0
    2.4762  -15.1197    0.0000 F   0  0
   -0.0399  -18.7087    0.0000 C   0  0
   -0.0387  -19.5282    0.0000 C   0  0
    0.6725  -19.9372    0.0000 C   0  0
    0.6707  -18.2998    0.0000 C   0  0
    1.3793  -18.7051    0.0000 C   0  0
    1.3827  -19.5303    0.0000 C   0  0
    2.0883  -18.2873    0.0000 C   0  0
    2.8086  -19.5244    0.0000 N   0  0
    2.0930  -19.9376    0.0000 N   0  0
    2.2648  -20.7459    0.0000 N   0  0
    3.0866  -20.8323    0.0000 C   0  0
    3.4226  -20.0774    0.0000 C   0  0
    2.7996  -18.6896    0.0000 O   0  0
    2.0810  -17.4701    0.0000 N   0  0
    2.7855  -17.0532    0.0000 C   0  0
    2.7802  -16.2396    0.0000 C   0  0
    1.3648  -16.2471    0.0000 C   0  0
    1.3685  -17.0669    0.0000 C   0  0
    3.4857  -15.8273    0.0000 O   0  0
    4.1956  -16.2321    0.0000 C   0  0
    4.2897  -17.0458    0.0000 N   0  0
    4.9447  -15.8973    0.0000 O   0  0
    5.4948  -16.5016    0.0000 C   0  0
    5.0882  -17.2073    0.0000 C   0  0
    5.4960  -17.9102    0.0000 C   0  0
    6.3102  -17.9086    0.0000 C   0  0
    6.7149  -17.1983    0.0000 C   0  0
    6.3048  -16.4983    0.0000 C   0  0
  2  1  1  0
  3  2  1  0
  4  5  2  0
  5  6  1  0
  6  9  2  0
  8  7  2  0
  7  4  1  0
  8  9  1  0
  8 10  1  0
  9 12  1  0
 11 12  1  0
 12 13  1  0
 13 14  2  0
 14 15  1  0
 15 11  2  0
 10 16  2  0
 10 17  1  0
 17 18  1  0
 17 21  1  0
 18 19  1  0
 19  2  1  0
  2 20  1  0
 20 21  1  0
 19 22  1  0
 22 23  1  0
 23 24  2  0
 24 27  1  0
 26 25  1  0
 25 23  1  0
 26 27  2  0
 27 28  1  0
 28 29  2  0
 29 30  1  0
 30 31  2  0
 31 26  1  0
M  END
> <chembl_id>
CHEMBL3906164

$$$$

  SciTegic12211717172D

 30 34  0  0  0  0            999 V2000
    2.1214   -7.7674    0.0000 F   0  0
    2.5341   -8.4773    0.0000 C   0  0
    2.9425   -7.7650    0.0000 F   0  0
    0.4319  -11.3540    0.0000 C   0  0
    0.4308  -12.1735    0.0000 C   0  0
    1.1371  -10.9451    0.0000 N   0  0
    1.8457  -11.3504    0.0000 C   0  0
    2.5547  -10.9326    0.0000 C   0  0
    3.2660  -11.3349    0.0000 O   0  0
    2.5474  -10.1154    0.0000 N   0  0
    3.2518   -9.6984    0.0000 C   0  0
    3.2466   -8.8848    0.0000 C   0  0  2  0  0  0
    1.8312   -8.8924    0.0000 C   0  0
    1.8348   -9.7122    0.0000 C   0  0
    3.9521   -8.4725    0.0000 O   0  0
    4.6620   -8.8774    0.0000 C   0  0
    4.6612   -9.6918    0.0000 C   0  0
    5.3702  -10.0966    0.0000 C   0  0
    5.3602   -8.4618    0.0000 N   0  0
    6.0698   -8.8628    0.0000 C   0  0
    6.0727   -9.6807    0.0000 C   0  0
    6.7813  -10.0853    0.0000 C   0  0
    7.4875   -9.6732    0.0000 C   0  0
    7.4805   -8.8522    0.0000 C   0  0
    6.7714   -8.4513    0.0000 C   0  0
    1.8470  -12.1718    0.0000 C   0  0
    1.1380  -12.5803    0.0000 C   0  0
    1.3075  -13.3808    0.0000 N   0  0
    2.1212  -13.4671    0.0000 C   0  0
    2.4546  -12.7198    0.0000 C   0  0
  2  1  1  0
  3  2  1  0
  4  5  2  0
  5 27  1  0
  7  6  2  0
  6  4  1  0
  7 26  1  0
  7  8  1  0
  8  9  2  0
  8 10  1  0
 10 11  1  0
 10 14  1  0
 11 12  1  0
 12  2  1  0
  2 13  1  0
 13 14  1  0
 12 15  1  1
 15 16  1  0
 16 17  2  0
 17 18  1  0
 18 21  2  0
 20 19  2  0
 19 16  1  0
 20 21  1  0
 21 22  1  0
 22 23  2  0
 23 24  1  0
 24 25  2  0
 25 20  1  0
 26 27  2  0
 27 28  1  0
 28 29  1  0
 29 30  2  0
 30 26  1  0
M  END
> <chembl_id>
CHEMBL3928942

$$$$

  SciTegic12211717382D

 32 36  0  0  0  0            999 V2000
   18.9440   -1.6261    0.0000 F   0  0
   19.3567   -2.3360    0.0000 C   0  0
   19.7651   -1.6236    0.0000 F   0  0
   17.2545   -5.2127    0.0000 C   0  0
   17.2534   -6.0322    0.0000 C   0  0
   17.9614   -6.4412    0.0000 C   0  0
   17.9596   -4.8038    0.0000 C   0  0
   18.6683   -5.2091    0.0000 C   0  0
   18.6716   -6.0342    0.0000 C   0  0
   19.3772   -4.7913    0.0000 C   0  0
   20.0976   -6.0284    0.0000 N   0  0
   19.3820   -6.4415    0.0000 N   0  0
   19.5538   -7.2498    0.0000 N   0  0
   20.3756   -7.3362    0.0000 C   0  0
   20.7116   -6.5813    0.0000 C   0  0
   20.0886   -5.1935    0.0000 O   0  0
   19.3700   -3.9741    0.0000 N   0  0
   20.0744   -3.5571    0.0000 C   0  0
   20.0691   -2.7435    0.0000 C   0  0
   18.6537   -2.7511    0.0000 C   0  0
   18.6574   -3.5709    0.0000 C   0  0
   20.7747   -2.3312    0.0000 O   0  0
   21.4845   -2.7361    0.0000 C   0  0
   22.1828   -2.3204    0.0000 C   0  0
   22.1928   -3.9553    0.0000 C   0  0
   21.4883   -3.5484    0.0000 N   0  0
   22.8923   -2.7198    0.0000 C   0  0
   22.8953   -3.5394    0.0000 C   0  0
   23.6054   -3.9448    0.0000 C   0  0
   24.3130   -3.5318    0.0000 C   0  0
   24.3061   -2.7091    0.0000 C   0  0
   23.5954   -2.3074    0.0000 C   0  0
  2  1  1  0
  3  2  1  0
  4  5  2  0
  5  6  1  0
  6  9  2  0
  8  7  2  0
  7  4  1  0
  8  9  1  0
  8 10  1  0
  9 12  1  0
 11 12  1  0
 12 13  1  0
 13 14  2  0
 14 15  1  0
 15 11  2  0
 10 16  2  0
 10 17  1  0
 17 18  1  0
 17 21  1  0
 18 19  1  0
 19  2  1  0
  2 20  1  0
 20 21  1  0
 19 22  1  0
 22 23  1  0
 23 26  2  0
 25 28  2  0
 27 24  2  0
 24 23  1  0
 25 26  1  0
 27 28  1  0
 28 29  1  0
 29 30  2  0
 30 31  1  0
 31 32  2  0
 32 27  1  0
M  END
> <chembl_id>
CHEMBL3929466

$$$$

  SciTegic12211703002D

 29 32  0  0  0  0            999 V2000
    9.6123   -7.5157    0.0000 F   0  0
   10.0250   -8.2256    0.0000 C   0  0
   10.4335   -7.5132    0.0000 F   0  0
    7.9229  -11.1022    0.0000 C   0  0
    7.9217  -11.9217    0.0000 C   0  0
    8.6298  -12.3307    0.0000 C   0  0
    8.6280  -10.6933    0.0000 C   0  0
    9.3366  -11.0986    0.0000 C   0  0
    9.3400  -11.9238    0.0000 C   0  0
   10.0456  -10.6808    0.0000 C   0  0
   10.7569  -11.0831    0.0000 O   0  0
   10.0383   -9.8637    0.0000 N   0  0
   10.7428   -9.4467    0.0000 C   0  0
   10.7375   -8.6331    0.0000 C   0  0
    9.3221   -8.6406    0.0000 C   0  0
    9.3258   -9.4604    0.0000 C   0  0
   11.4430   -8.2208    0.0000 O   0  0
   12.1529   -8.6256    0.0000 C   0  0
   12.1521   -9.4401    0.0000 C   0  0
   12.8611   -9.8449    0.0000 C   0  0
   12.8511   -8.2100    0.0000 N   0  0
   13.5607   -8.6111    0.0000 C   0  0
   13.5636   -9.4289    0.0000 C   0  0
   14.2722   -9.8335    0.0000 C   0  0
   14.9784   -9.4214    0.0000 C   0  0
   14.9715   -8.6004    0.0000 C   0  0
   14.2623   -8.1996    0.0000 C   0  0
   10.0435  -12.3294    0.0000 O   0  0
   10.7511  -11.9206    0.0000 C   0  0
  2  1  1  0
  3  2  1  0
  4  5  2  0
  5  6  1  0
  6  9  2  0
  8  7  2  0
  7  4  1  0
  8  9  1  0
  8 10  1  0
 10 11  2  0
 10 12  1  0
 12 13  1  0
 12 16  1  0
 13 14  1  0
 14  2  1  0
  2 15  1  0
 15 16  1  0
 14 17  1  0
 17 18  1  0
 18 19  2  0
 19 20  1  0
 20 23  2  0
 22 21  2  0
 21 18  1  0
 22 23  1  0
 23 24  1  0
 24 25  2  0
 25 26  1  0
 26 27  2  0
 27 22  1  0
 28 29  1  0
  9 28  1  0
M  END
> <chembl_id>
CHEMBL3907717

$$$$

  SciTegic12211707512D

 32 36  0  0  0  0            999 V2000
   12.7325   -1.4404    0.0000 F   0  0
   13.1452   -2.1503    0.0000 C   0  0
   13.5536   -1.4379    0.0000 F   0  0
   11.0430   -5.0269    0.0000 C   0  0
   11.0419   -5.8465    0.0000 C   0  0
   11.7499   -6.2554    0.0000 C   0  0
   11.7482   -4.6181    0.0000 C   0  0
   12.4568   -5.0233    0.0000 C   0  0
   12.4602   -5.8485    0.0000 C   0  0
   13.1658   -4.6055    0.0000 C   0  0
   13.8861   -5.8427    0.0000 N   0  0
   13.1705   -6.2558    0.0000 N   0  0
   13.3423   -7.0641    0.0000 N   0  0
   14.1641   -7.1505    0.0000 C   0  0
   14.5001   -6.3956    0.0000 C   0  0
   13.8771   -5.0078    0.0000 O   0  0
   13.1585   -3.7884    0.0000 N   0  0
   13.8630   -3.3714    0.0000 C   0  0
   13.8577   -2.5578    0.0000 C   0  0
   12.4423   -2.5654    0.0000 C   0  0
   12.4459   -3.3851    0.0000 C   0  0
   14.5632   -2.1455    0.0000 O   0  0
   15.2731   -2.5504    0.0000 C   0  0
   15.9713   -2.1347    0.0000 N   0  0
   16.6809   -2.5358    0.0000 C   0  0
   16.6838   -3.3536    0.0000 C   0  0
   15.9813   -3.7696    0.0000 C   0  0
   15.2768   -3.3627    0.0000 C   0  0
   14.5743   -3.7693    0.0000 C   0  0
   14.5751   -4.5826    0.0000 C   0  0
   15.2842   -4.9876    0.0000 C   0  0
   15.9838   -4.5787    0.0000 C   0  0
  2  1  1  0
  3  2  1  0
  4  5  2  0
  5  6  1  0
  6  9  2  0
  8  7  2  0
  7  4  1  0
  8  9  1  0
  8 10  1  0
  9 12  1  0
 11 12  1  0
 12 13  1  0
 13 14  2  0
 14 15  1  0
 15 11  2  0
 10 16  2  0
 10 17  1  0
 17 18  1  0
 17 21  1  0
 18 19  1  0
 19  2  1  0
  2 20  1  0
 20 21  1  0
 19 22  1  0
 22 23  1  0
 23 28  2  0
 27 26  2  0
 25 24  2  0
 24 23  1  0
 25 26  1  0
 27 28  1  0
 28 29  1  0
 29 30  2  0
 30 31  1  0
 31 32  2  0
 32 27  1  0
M  END
> <chembl_id>
CHEMBL3915136

$$$$

  SciTegic12231718592D

 28 31  0  0  0  0            999 V2000
   15.1263  -15.3203    0.0000 F   0  0
   15.5390  -16.0302    0.0000 C   0  0
   15.9474  -15.3178    0.0000 F   0  0
   13.4368  -18.9068    0.0000 C   0  0
   13.4357  -19.7263    0.0000 C   0  0
   14.1437  -20.1353    0.0000 C   0  0
   14.1419  -18.4979    0.0000 C   0  0
   14.8506  -18.9032    0.0000 C   0  0
   14.8540  -19.7284    0.0000 C   0  0
   15.5596  -18.4854    0.0000 C   0  0
   16.2799  -19.7225    0.0000 N   0  0
   15.5643  -20.1357    0.0000 N   0  0
   15.7361  -20.9440    0.0000 N   0  0
   16.5579  -21.0304    0.0000 C   0  0
   16.8939  -20.2755    0.0000 C   0  0
   16.2709  -18.8877    0.0000 O   0  0
   15.5523  -17.6682    0.0000 N   0  0
   16.2567  -17.2513    0.0000 C   0  0
   16.2515  -16.4377    0.0000 C   0  0
   14.8361  -16.4452    0.0000 C   0  0
   14.8397  -17.2650    0.0000 C   0  0
   16.9570  -16.0254    0.0000 O   0  0
   17.6668  -16.4302    0.0000 C   0  0
   17.6661  -17.2446    0.0000 C   0  0
   18.3751  -17.6494    0.0000 C   0  0
   19.0816  -17.2371    0.0000 C   0  0
   19.0747  -16.4157    0.0000 C   0  0
   18.3651  -16.0146    0.0000 N   0  0
  2  1  1  0
  3  2  1  0
  4  5  2  0
  5  6  1  0
  6  9  2  0
  8  7  2  0
  7  4  1  0
  8  9  1  0
  8 10  1  0
  9 12  1  0
 11 12  1  0
 12 13  1  0
 13 14  2  0
 14 15  1  0
 15 11  2  0
 10 16  2  0
 10 17  1  0
 17 18  1  0
 17 21  1  0
 18 19  1  0
 19  2  1  0
  2 20  1  0
 20 21  1  0
 19 22  1  0
 22 23  1  0
 23 24  2  0
 24 25  1  0
 25 26  2  0
 26 27  1  0
 27 28  2  0
 28 23  1  0
M  END
> <chembl_id>
CHEMBL3963945

$$$$

  SciTegic12211719372D

 27 30  0  0  0  0            999 V2000
   16.6410  -22.7906    0.0000 F   0  0
   17.0537  -23.5004    0.0000 C   0  0
   17.4621  -22.7881    0.0000 F   0  0
   14.9515  -26.3771    0.0000 C   0  0
   14.9504  -27.1966    0.0000 C   0  0
   15.6584  -27.6056    0.0000 C   0  0
   15.6566  -25.9682    0.0000 C   0  0
   16.3653  -26.3735    0.0000 C   0  0
   16.3687  -27.1987    0.0000 C   0  0
   17.0743  -25.9557    0.0000 C   0  0
   17.7856  -26.3580    0.0000 O   0  0
   17.0670  -25.1385    0.0000 N   0  0
   17.7714  -24.7216    0.0000 C   0  0
   17.7661  -23.9080    0.0000 C   0  0
   16.3508  -23.9155    0.0000 C   0  0
   16.3544  -24.7353    0.0000 C   0  0
   18.4717  -23.4956    0.0000 O   0  0
   19.1815  -23.9005    0.0000 C   0  0
   19.1808  -24.7149    0.0000 C   0  0
   19.8898  -25.1197    0.0000 C   0  0
   19.8798  -23.4849    0.0000 N   0  0
   20.5894  -23.8860    0.0000 C   0  0
   20.5923  -24.7038    0.0000 C   0  0
   21.3009  -25.1084    0.0000 C   0  0
   22.0071  -24.6963    0.0000 C   0  0
   22.0001  -23.8753    0.0000 C   0  0
   21.2910  -23.4744    0.0000 C   0  0
  2  1  1  0
  3  2  1  0
  4  5  2  0
  5  6  1  0
  6  9  2  0
  8  7  2  0
  7  4  1  0
  8  9  1  0
  8 10  1  0
 10 11  2  0
 10 12  1  0
 12 13  1  0
 12 16  1  0
 13 14  1  0
 14  2  1  0
  2 15  1  0
 15 16  1  0
 14 17  1  0
 17 18  1  0
 18 19  2  0
 19 20  1  0
 20 23  2  0
 22 21  2  0
 21 18  1  0
 22 23  1  0
 23 24  1  0
 24 25  2  0
 25 26  1  0
 26 27  2  0
 27 22  1  0
M  END
> <chembl_id>
CHEMBL3932393

$$$$

  SciTegic12201714582D

 28 31  0  0  0  0            999 V2000
    2.0100   -1.2010    0.0000 F   0  0
    2.4227   -1.9109    0.0000 C   0  0
    2.8311   -1.1985    0.0000 F   0  0
    0.3205   -4.7875    0.0000 C   0  0
    0.3194   -5.6071    0.0000 C   0  0
    1.0274   -6.0160    0.0000 C   0  0
    1.0256   -4.3787    0.0000 C   0  0
    1.7342   -4.7839    0.0000 C   0  0
    1.7376   -5.6091    0.0000 C   0  0
    2.4432   -4.3662    0.0000 C   0  0
    3.1545   -4.7684    0.0000 O   0  0
    2.4360   -3.5490    0.0000 N   0  0
    3.1404   -3.1320    0.0000 C   0  0
    3.1351   -2.3184    0.0000 C   0  0
    1.7197   -2.3260    0.0000 C   0  0
    1.7234   -3.1458    0.0000 C   0  0
    3.8407   -1.9061    0.0000 O   0  0
    4.5505   -2.3110    0.0000 C   0  0
    4.5497   -3.1254    0.0000 C   0  0
    5.2588   -3.5302    0.0000 C   0  0
    5.2488   -1.8953    0.0000 N   0  0
    5.9583   -2.2964    0.0000 C   0  0
    5.9613   -3.1143    0.0000 C   0  0
    6.6699   -3.5189    0.0000 C   0  0
    7.3760   -3.1067    0.0000 C   0  0
    7.3691   -2.2858    0.0000 C   0  0
    6.6599   -1.8849    0.0000 C   0  0
    2.4455   -6.0175    0.0000 F   0  0
  2  1  1  0
  3  2  1  0
  4  5  2  0
  5  6  1  0
  6  9  2  0
  8  7  2  0
  7  4  1  0
  8  9  1  0
  8 10  1  0
 10 11  2  0
 10 12  1  0
 12 13  1  0
 12 16  1  0
 13 14  1  0
 14  2  1  0
  2 15  1  0
 15 16  1  0
 14 17  1  0
 17 18  1  0
 18 19  2  0
 19 20  1  0
 20 23  2  0
 22 21  2  0
 21 18  1  0
 22 23  1  0
 23 24  1  0
 24 25  2  0
 25 26  1  0
 26 27  2  0
 27 22  1  0
  9 28  1  0
M  END
> <chembl_id>
CHEMBL3889779

$$$$

  SciTegic12241708572D

 32 36  0  0  0  0            999 V2000
    5.9143   -1.3909    0.0000 F   0  0
    6.3270   -2.1008    0.0000 C   0  0
    6.7355   -1.3884    0.0000 F   0  0
    4.2249   -4.9774    0.0000 C   0  0
    4.2237   -5.7969    0.0000 C   0  0
    4.9318   -6.2059    0.0000 C   0  0
    4.9300   -4.5685    0.0000 C   0  0
    5.6386   -4.9738    0.0000 C   0  0
    5.6420   -5.7990    0.0000 C   0  0
    6.3476   -4.5560    0.0000 C   0  0
    7.0679   -5.7931    0.0000 N   0  0
    6.3523   -6.2063    0.0000 N   0  0
    6.5241   -7.0146    0.0000 N   0  0
    7.3459   -7.1010    0.0000 C   0  0
    7.6819   -6.3461    0.0000 C   0  0
    7.0589   -4.9583    0.0000 O   0  0
    6.3403   -3.7388    0.0000 N   0  0
    7.0448   -3.3219    0.0000 C   0  0
    7.0395   -2.5083    0.0000 C   0  0
    5.6241   -2.5158    0.0000 C   0  0
    5.6278   -3.3356    0.0000 C   0  0
    7.7450   -2.0960    0.0000 O   0  0
    8.4549   -2.5008    0.0000 C   0  0
    8.4541   -3.3153    0.0000 C   0  0
    9.1631   -3.7200    0.0000 C   0  0
    9.1531   -2.0852    0.0000 N   0  0
    9.8627   -2.4863    0.0000 C   0  0
    9.8656   -3.3041    0.0000 C   0  0
   10.5742   -3.7087    0.0000 C   0  0
   11.2804   -3.2966    0.0000 C   0  0
   11.2735   -2.4756    0.0000 C   0  0
   10.5643   -2.0748    0.0000 C   0  0
  2  1  1  0
  3  2  1  0
  4  5  2  0
  5  6  1  0
  6  9  2  0
  8  7  2  0
  7  4  1  0
  8  9  1  0
  8 10  1  0
  9 12  1  0
 11 12  1  0
 12 13  1  0
 13 14  2  0
 14 15  1  0
 15 11  2  0
 10 16  2  0
 10 17  1  0
 17 18  1  0
 17 21  1  0
 18 19  1  0
 19  2  1  0
  2 20  1  0
 20 21  1  0
 19 22  1  0
 22 23  1  0
 23 24  2  0
 24 25  1  0
 25 28  2  0
 27 26  2  0
 26 23  1  0
 27 28  1  0
 28 29  1  0
 29 30  2  0
 30 31  1  0
 31 32  2  0
 32 27  1  0
M  END
> <chembl_id>
CHEMBL3984937

$$$$

  SciTegic12231720432D

 30 34  0  0  0  0            999 V2000
    2.1338  -22.5718    0.0000 F   0  0
    2.5465  -23.2817    0.0000 C   0  0
    2.9549  -22.5693    0.0000 F   0  0
    0.4443  -26.1583    0.0000 C   0  0
    0.4432  -26.9779    0.0000 C   0  0
    1.1494  -25.7495    0.0000 C   0  0
    1.8581  -26.1547    0.0000 C   0  0
    2.5670  -25.7369    0.0000 C   0  0
    3.2784  -26.1392    0.0000 O   0  0
    2.5598  -24.9198    0.0000 N   0  0
    3.2642  -24.5028    0.0000 C   0  0
    3.2589  -23.6892    0.0000 C   0  0
    1.8435  -23.6968    0.0000 C   0  0
    1.8472  -24.5166    0.0000 C   0  0
    3.9645  -23.2769    0.0000 O   0  0
    4.6743  -23.6818    0.0000 C   0  0
    4.6736  -24.4962    0.0000 C   0  0
    5.3826  -24.9010    0.0000 C   0  0
    5.3726  -23.2661    0.0000 N   0  0
    6.0821  -23.6672    0.0000 C   0  0
    6.0851  -24.4851    0.0000 C   0  0
    6.7937  -24.8896    0.0000 C   0  0
    7.4999  -24.4775    0.0000 C   0  0
    7.4929  -23.6566    0.0000 C   0  0
    6.7838  -23.2557    0.0000 C   0  0
    1.8594  -26.9761    0.0000 C   0  0
    1.1504  -27.3847    0.0000 N   0  0
    1.3198  -28.1852    0.0000 C   0  0
    2.1336  -28.2715    0.0000 N   0  0
    2.4669  -27.5242    0.0000 C   0  0
  2  1  1  0
  3  2  1  0
  4  5  2  0
  5 27  1  0
  7  6  2  0
  6  4  1  0
  7 26  1  0
  7  8  1  0
  8  9  2  0
  8 10  1  0
 10 11  1  0
 10 14  1  0
 11 12  1  0
 12  2  1  0
  2 13  1  0
 13 14  1  0
 12 15  1  0
 15 16  1  0
 16 17  2  0
 17 18  1  0
 18 21  2  0
 20 19  2  0
 19 16  1  0
 20 21  1  0
 21 22  1  0
 22 23  2  0
 23 24  1  0
 24 25  2  0
 25 20  1  0
 26 27  1  0
 27 28  1  0
 28 29  2  0
 29 30  1  0
 30 26  2  0
M  END
> <chembl_id>
CHEMBL3966617

$$$$

  SciTegic12221709012D

 31 35  0  0  0  0            999 V2000
    9.1321  -14.7919    0.0000 C   0  0
    9.1310  -15.6115    0.0000 C   0  0
    9.8390  -16.0205    0.0000 C   0  0
   10.5487  -15.6110    0.0000 C   0  0
   10.5459  -14.7883    0.0000 C   0  0
    9.8373  -14.3831    0.0000 C   0  0
    9.8438  -16.8376    0.0000 N   0  0
    9.1826  -17.3178    0.0000 N   0  0
    9.4350  -18.0951    0.0000 C   0  0
   10.2522  -18.0953    0.0000 C   0  0
   10.5048  -17.3181    0.0000 N   0  0
   11.2571  -16.0185    0.0000 C   0  0
   11.2583  -16.8357    0.0000 O   0  0
   11.9641  -15.6088    0.0000 N   0  0
   12.6669  -16.0196    0.0000 C   0  0
   13.3719  -15.6134    0.0000 C   0  0  1  0  0  0
   13.3748  -14.7959    0.0000 C   0  0
   12.6666  -14.3862    0.0000 C   0  0
   11.9555  -14.7941    0.0000 C   0  0  1  0  0  0
   11.2462  -14.3882    0.0000 C   0  0
   14.0787  -16.0236    0.0000 O   0  0
   14.7873  -15.6165    0.0000 C   0  0
   15.4911  -16.0275    0.0000 N   0  0
   15.4897  -14.3931    0.0000 C   0  0
   14.7845  -14.8018    0.0000 C   0  0
   16.2015  -14.8031    0.0000 C   0  0
   16.1968  -15.6197    0.0000 C   0  0
   16.9006  -16.0303    0.0000 C   0  0
   17.6096  -15.6254    0.0000 C   0  0
   17.6103  -14.8056    0.0000 C   0  0
   16.9059  -14.3987    0.0000 C   0  0
  1  2  2  0
  2  3  1  0
  3  4  2  0
  4  5  1  0
  5  6  2  0
  6  1  1  0
  7  8  1  0
  8  9  2  0
  9 10  1  0
 10 11  2  0
 11  7  1  0
  3  7  1  0
  4 12  1  0
 12 13  2  0
 12 14  1  0
 14 15  1  0
 14 19  1  0
 15 16  1  0
 16 17  1  0
 17 18  1  0
 18 19  1  0
 19 20  1  6
 16 21  1  1
 21 22  1  0
 22 23  2  0
 23 27  1  0
 26 24  1  0
 24 25  2  0
 25 22  1  0
 26 27  1  0
 27 28  2  0
 28 29  1  0
 29 30  2  0
 30 31  1  0
 31 26  2  0
M  END
> <chembl_id>
CHEMBL3951917

$$$$

  SciTegic12211714012D

 32 36  0  0  0  0            999 V2000
   25.8076   -1.6303    0.0000 F   0  0
   26.2203   -2.3401    0.0000 C   0  0
   26.6287   -1.6278    0.0000 F   0  0
   24.1181   -5.2168    0.0000 C   0  0
   24.1170   -6.0363    0.0000 C   0  0
   24.8250   -6.4453    0.0000 C   0  0
   24.8232   -4.8079    0.0000 C   0  0
   25.5318   -5.2132    0.0000 C   0  0
   25.5352   -6.0384    0.0000 C   0  0
   26.2408   -4.7954    0.0000 C   0  0
   26.9612   -6.0325    0.0000 N   0  0
   26.2456   -6.4457    0.0000 N   0  0
   26.4173   -7.2540    0.0000 N   0  0
   27.2392   -7.3404    0.0000 C   0  0
   27.5752   -6.5855    0.0000 C   0  0
   26.9521   -5.1977    0.0000 O   0  0
   26.2336   -3.9782    0.0000 N   0  0
   26.9380   -3.5613    0.0000 C   0  0
   26.9327   -2.7477    0.0000 C   0  0
   25.5173   -2.7552    0.0000 C   0  0
   25.5210   -3.5750    0.0000 C   0  0
   27.6383   -2.3353    0.0000 O   0  0
   28.3481   -2.7402    0.0000 C   0  0
   29.7629   -3.5471    0.0000 N   0  0
   29.7559   -2.7257    0.0000 C   0  0
   29.0464   -2.3246    0.0000 C   0  0
   29.0564   -3.9594    0.0000 C   0  0
   28.3519   -3.5525    0.0000 C   0  0
   27.6494   -3.9591    0.0000 C   0  0
   27.6501   -4.7724    0.0000 C   0  0
   28.3593   -5.1774    0.0000 C   0  0
   29.0589   -4.7685    0.0000 C   0  0
  2  1  1  0
  3  2  1  0
  4  5  2  0
  5  6  1  0
  6  9  2  0
  8  7  2  0
  7  4  1  0
  8  9  1  0
  8 10  1  0
  9 12  1  0
 11 12  1  0
 12 13  1  0
 13 14  2  0
 14 15  1  0
 15 11  2  0
 10 16  2  0
 10 17  1  0
 17 18  1  0
 17 21  1  0
 18 19  1  0
 19  2  1  0
  2 20  1  0
 20 21  1  0
 19 22  1  0
 22 23  1  0
 23 28  2  0
 27 24  2  0
 24 25  1  0
 25 26  2  0
 26 23  1  0
 27 28  1  0
 28 29  1  0
 29 30  2  0
 30 31  1  0
 31 32  2  0
 32 27  1  0
M  END
> <chembl_id>
CHEMBL3924149

$$$$

  SciTegic12201723152D

 30 34  0  0  0  0            999 V2000
   15.1180  -15.3987    0.0000 F   0  0
   15.5308  -16.1086    0.0000 C   0  0
   15.9392  -15.3962    0.0000 F   0  0
   13.4286  -18.9852    0.0000 C   0  0
   13.4274  -19.8048    0.0000 C   0  0
   14.1337  -18.5764    0.0000 C   0  0
   14.8423  -18.9816    0.0000 C   0  0
   15.5513  -18.5638    0.0000 C   0  0
   16.2626  -18.9661    0.0000 O   0  0
   15.5440  -17.7467    0.0000 N   0  0
   16.2485  -17.3297    0.0000 C   0  0
   16.2432  -16.5161    0.0000 C   0  0
   14.8278  -16.5236    0.0000 C   0  0
   14.8315  -17.3434    0.0000 C   0  0
   16.9487  -16.1038    0.0000 O   0  0
   17.6586  -16.5086    0.0000 C   0  0
   17.6578  -17.3231    0.0000 C   0  0
   18.3668  -17.7279    0.0000 C   0  0
   18.3568  -16.0930    0.0000 N   0  0
   19.0664  -16.4941    0.0000 C   0  0
   19.0694  -17.3119    0.0000 C   0  0
   19.7780  -17.7165    0.0000 C   0  0
   20.4841  -17.3044    0.0000 C   0  0
   20.4772  -16.4835    0.0000 C   0  0
   19.7680  -16.0826    0.0000 C   0  0
   14.8436  -19.8030    0.0000 N   0  0
   14.1347  -20.2115    0.0000 C   0  0
   14.3041  -21.0121    0.0000 N   0  0
   15.1179  -21.0983    0.0000 C   0  0
   15.4512  -20.3511    0.0000 C   0  0
  2  1  1  0
  3  2  1  0
  4  5  2  0
  5 27  1  0
  7  6  2  0
  6  4  1  0
  7 26  1  0
  7  8  1  0
  8  9  2  0
  8 10  1  0
 10 11  1  0
 10 14  1  0
 11 12  1  0
 12  2  1  0
  2 13  1  0
 13 14  1  0
 12 15  1  0
 15 16  1  0
 16 17  2  0
 17 18  1  0
 18 21  2  0
 20 19  2  0
 19 16  1  0
 20 21  1  0
 21 22  1  0
 22 23  2  0
 23 24  1  0
 24 25  2  0
 25 20  1  0
 26 27  1  0
 27 28  2  0
 28 29  1  0
 29 30  2  0
 30 26  1  0
M  END
> <chembl_id>
CHEMBL3902070

$$$$

  SciTegic12201722312D

 30 34  0  0  0  0            999 V2000
   15.9724   -1.2671    0.0000 F   0  0
   16.3851   -1.9769    0.0000 C   0  0
   16.7935   -1.2646    0.0000 F   0  0
   14.2829   -4.8536    0.0000 N   0  0
   14.2818   -5.6731    0.0000 C   0  0
   14.9880   -4.4447    0.0000 C   0  0
   15.6967   -4.8500    0.0000 C   0  0
   16.4056   -4.4322    0.0000 C   0  0
   17.1170   -4.8345    0.0000 O   0  0
   16.3984   -3.6150    0.0000 N   0  0
   17.1028   -3.1981    0.0000 C   0  0
   17.0975   -2.3845    0.0000 C   0  0  2  0  0  0
   15.6821   -2.3920    0.0000 C   0  0
   15.6858   -3.2118    0.0000 C   0  0
   17.8031   -1.9721    0.0000 O   0  0
   18.5129   -2.3770    0.0000 C   0  0
   18.5122   -3.1914    0.0000 C   0  0
   19.2212   -3.5962    0.0000 C   0  0
   19.2112   -1.9614    0.0000 N   0  0
   19.9207   -2.3625    0.0000 C   0  0
   19.9237   -3.1803    0.0000 C   0  0
   20.6323   -3.5849    0.0000 C   0  0
   21.3384   -3.1728    0.0000 C   0  0
   21.3315   -2.3518    0.0000 C   0  0
   20.6224   -1.9509    0.0000 C   0  0
   15.6980   -5.6714    0.0000 C   0  0
   14.9890   -6.0799    0.0000 C   0  0
   15.1584   -6.8805    0.0000 N   0  0
   15.9722   -6.9667    0.0000 C   0  0
   16.3055   -6.2194    0.0000 C   0  0
  2  1  1  0
  3  2  1  0
  4  5  2  0
  5 27  1  0
  7  6  2  0
  6  4  1  0
  7 26  1  0
  7  8  1  0
  8  9  2  0
  8 10  1  0
 10 11  1  0
 10 14  1  0
 11 12  1  0
 12  2  1  0
  2 13  1  0
 13 14  1  0
 12 15  1  1
 15 16  1  0
 16 17  2  0
 17 18  1  0
 18 21  2  0
 20 19  2  0
 19 16  1  0
 20 21  1  0
 21 22  1  0
 22 23  2  0
 23 24  1  0
 24 25  2  0
 25 20  1  0
 26 27  2  0
 27 28  1  0
 28 29  1  0
 29 30  2  0
 30 26  1  0
M  END
> <chembl_id>
CHEMBL3900983

$$$$

  SciTegic12211705142D

 30 34  0  0  0  0            999 V2000
    2.1957  -14.9364    0.0000 F   0  0
    2.6084  -15.6463    0.0000 C   0  0
    3.0168  -14.9340    0.0000 F   0  0
    0.5062  -18.5230    0.0000 C   0  0
    0.5051  -19.3425    0.0000 N   0  0
    1.2113  -18.1141    0.0000 C   0  0
    1.9200  -18.5194    0.0000 C   0  0
    2.6289  -18.1016    0.0000 C   0  0
    3.3403  -18.5039    0.0000 O   0  0
    2.6217  -17.2844    0.0000 N   0  0
    3.3261  -16.8674    0.0000 C   0  0
    3.3208  -16.0538    0.0000 C   0  0
    1.9055  -16.0614    0.0000 C   0  0
    1.9091  -16.8812    0.0000 C   0  0
    4.0264  -15.6415    0.0000 O   0  0
    4.7362  -16.0464    0.0000 C   0  0
    4.7355  -16.8608    0.0000 C   0  0
    5.4445  -17.2656    0.0000 C   0  0
    5.4345  -15.6308    0.0000 N   0  0
    6.1441  -16.0318    0.0000 C   0  0
    6.1470  -16.8497    0.0000 C   0  0
    6.8556  -17.2543    0.0000 C   0  0
    7.5618  -16.8421    0.0000 C   0  0
    7.5548  -16.0212    0.0000 C   0  0
    6.8457  -15.6203    0.0000 C   0  0
    1.9213  -19.3408    0.0000 C   0  0
    1.2123  -19.7493    0.0000 C   0  0
    1.3817  -20.5498    0.0000 N   0  0
    2.1955  -20.6361    0.0000 C   0  0
    2.5289  -19.8888    0.0000 N   0  0
  2  1  1  0
  3  2  1  0
  4  5  2  0
  5 27  1  0
  7  6  2  0
  6  4  1  0
  7 26  1  0
  7  8  1  0
  8  9  2  0
  8 10  1  0
 10 11  1  0
 10 14  1  0
 11 12  1  0
 12  2  1  0
  2 13  1  0
 13 14  1  0
 12 15  1  0
 15 16  1  0
 16 17  2  0
 17 18  1  0
 18 21  2  0
 20 19  2  0
 19 16  1  0
 20 21  1  0
 21 22  1  0
 22 23  2  0
 23 24  1  0
 24 25  2  0
 25 20  1  0
 26 27  2  0
 27 28  1  0
 28 29  1  0
 29 30  2  0
 30 26  1  0
M  END
> <chembl_id>
CHEMBL3911086

$$$$

  SciTegic12211711032D

 33 37  0  0  0  0            999 V2000
   22.0229  -14.9075    0.0000 F   0  0
   22.4356  -15.6174    0.0000 C   0  0
   22.8440  -14.9051    0.0000 F   0  0
   20.3334  -18.4941    0.0000 C   0  0
   20.3323  -19.3136    0.0000 C   0  0
   21.0403  -19.7226    0.0000 C   0  0
   21.0385  -18.0852    0.0000 C   0  0
   21.7472  -18.4905    0.0000 C   0  0
   21.7506  -19.3157    0.0000 C   0  0
   22.4562  -18.0727    0.0000 C   0  0
   23.1675  -18.4750    0.0000 O   0  0
   22.4489  -17.2555    0.0000 N   0  0
   23.1533  -16.8386    0.0000 C   0  0
   23.1481  -16.0249    0.0000 C   0  0  2  0  0  0
   21.7327  -16.0325    0.0000 C   0  0
   21.7363  -16.8523    0.0000 C   0  0
   23.8536  -15.6126    0.0000 O   0  0
   24.5634  -16.0175    0.0000 C   0  0
   24.5627  -16.8319    0.0000 C   0  0
   25.2717  -17.2367    0.0000 C   0  0
   25.2617  -15.6019    0.0000 N   0  0
   25.9713  -16.0030    0.0000 C   0  0
   25.9742  -16.8208    0.0000 C   0  0
   26.6828  -17.2254    0.0000 C   0  0
   27.3890  -16.8133    0.0000 C   0  0
   27.3820  -15.9923    0.0000 C   0  0
   26.6729  -15.5914    0.0000 C   0  0
   22.4548  -19.7199    0.0000 C   0  0
   22.4538  -20.5382    0.0000 N   0  0
   23.1609  -20.9464    0.0000 C   0  0
   23.8694  -20.5375    0.0000 C   0  0
   23.8664  -19.7161    0.0000 C   0  0
   23.1588  -19.3115    0.0000 N   0  0
  2  1  1  0
  3  2  1  0
  4  5  2  0
  5  6  1  0
  6  9  2  0
  8  7  2  0
  7  4  1  0
  8  9  1  0
  8 10  1  0
 10 11  2  0
 10 12  1  0
 12 13  1  0
 12 16  1  0
 13 14  1  0
 14  2  1  0
  2 15  1  0
 15 16  1  0
 14 17  1  1
 17 18  1  0
 18 19  2  0
 19 20  1  0
 20 23  2  0
 22 21  2  0
 21 18  1  0
 22 23  1  0
 23 24  1  0
 24 25  2  0
 25 26  1  0
 26 27  2  0
 27 22  1  0
 28 29  2  0
 29 30  1  0
 30 31  2  0
 31 32  1  0
 32 33  2  0
 33 28  1  0
  9 28  1  0
M  END
> <chembl_id>
CHEMBL3919876

$$$$

  SciTegic12171312552D

 38 41  0  0  0  0            999 V2000
   10.9944   -8.0624    0.0000 C   0  0
   10.9932   -8.8898    0.0000 C   0  0
   11.7080   -9.3027    0.0000 C   0  0
   11.7062   -7.6497    0.0000 C   0  0
   12.4217   -8.0589    0.0000 C   0  0
   12.4205   -8.8873    0.0000 C   0  0
   13.1334   -9.3002    0.0000 C   0  0  1  0  0  0
   13.8521   -8.8893    0.0000 N   0  0
   13.8532   -8.0609    0.0000 C   0  0
   13.1357   -7.6433    0.0000 C   0  0
   14.5655   -9.3039    0.0000 C   0  0  2  0  0  0
   14.5631  -10.1289    0.0000 C   0  0
   15.2810   -8.8933    0.0000 C   0  0
   15.9944   -9.3078    0.0000 N   0  0
   16.7100   -8.8973    0.0000 C   0  0
   17.4233   -9.3118    0.0000 C   0  0
   16.7123   -8.0723    0.0000 C   0  0
   15.2834   -8.0684    0.0000 O   0  0
   13.1311  -10.1252    0.0000 C   0  0
   12.4155  -10.5357    0.0000 C   0  0
   11.7042  -10.1206    0.0000 C   0  0
   10.9890  -10.5304    0.0000 C   0  0
   10.9863  -11.3563    0.0000 C   0  0
   11.7046  -11.7706    0.0000 C   0  0
   12.4168  -11.3584    0.0000 C   0  0
   13.8482  -10.5350    0.0000 C   0  0
   13.8455  -11.3592    0.0000 C   0  0
   14.5594  -11.7745    0.0000 C   0  0
   15.2774  -11.3596    0.0000 C   0  0
   15.2765  -10.5367    0.0000 C   0  0
   10.2785   -9.3017    0.0000 O   0  0
    9.5643   -8.8887    0.0000 C   0  0
   10.2798   -7.6501    0.0000 O   0  0
   10.2796   -6.8251    0.0000 C   0  0
   10.2760  -10.1155    0.0000 O   0  0
    9.5601  -10.5257    0.0000 C   0  0
   10.2712  -11.7677    0.0000 O   0  0
    9.5574  -11.3542    0.0000 C   0  0
  1  2  2  0
  2  3  1  0
  3  6  2  0
  5  4  2  0
  4  1  1  0
  5  6  1  0
  5 10  1  0
  6  7  1  0
  7  8  1  0
  8  9  1  0
  9 10  1  0
  8 11  1  0
 11 12  1  1
 11 13  1  0
 13 14  1  0
 14 15  1  0
 15 16  1  0
 15 17  1  0
 13 18  2  0
  7 19  1  1
 19 20  1  0
 20 21  2  0
 21 22  1  0
 22 23  2  0
 23 24  1  0
 24 25  2  0
 25 20  1  0
 12 26  2  0
 26 27  1  0
 27 28  2  0
 28 29  1  0
 29 30  2  0
 30 12  1  0
  2 31  1  0
 31 32  1  0
  1 33  1  0
 33 34  1  0
 22 35  1  0
 35 36  1  0
 23 37  1  0
 37 38  1  0
M  END
> <chembl_id>
CHEMBL2413367

$$$$

  SciTegic12211716442D

 31 34  0  0  0  0            999 V2000
    0.7167   -2.2864    0.0000 C   0  0
    0.7156   -3.1060    0.0000 C   0  0
    1.4236   -3.5149    0.0000 C   0  0
    2.1333   -3.1055    0.0000 C   0  0
    2.1305   -2.2828    0.0000 C   0  0
    1.4218   -1.8776    0.0000 C   0  0
    1.4253   -4.3300    0.0000 C   0  0
    0.7159   -4.7378    0.0000 N   0  0
    0.7153   -5.5542    0.0000 C   0  0
    1.4235   -5.9638    0.0000 C   0  0
    2.1336   -5.5510    0.0000 C   0  0
    2.1307   -4.7359    0.0000 N   0  0
    2.8416   -3.5130    0.0000 C   0  0
    2.8429   -4.3302    0.0000 O   0  0
    3.5487   -3.1033    0.0000 N   0  0
    4.2577   -3.5125    0.0000 C   0  0
    4.9626   -3.1063    0.0000 C   0  0
    4.9655   -2.2887    0.0000 C   0  0
    4.2574   -1.8791    0.0000 C   0  0
    3.5462   -2.2869    0.0000 C   0  0  1  0  0  0
    1.4194   -1.0604    0.0000 C   0  0
    5.6694   -3.5164    0.0000 C   0  0
    6.3780   -3.1094    0.0000 O   0  0
    7.0848   -3.5195    0.0000 C   0  0
    7.0778   -4.3346    0.0000 N   0  0
    7.7837   -4.7447    0.0000 C   0  0
    8.4933   -4.3376    0.0000 C   0  0
    8.4925   -3.5162    0.0000 C   0  0
    7.7860   -3.1098    0.0000 C   0  0
    9.2007   -4.7469    0.0000 F   0  0
    2.8385   -1.8784    0.0000 C   0  0
  1  2  2  0
  2  3  1  0
  3  4  2  0
  4  5  1  0
  5  6  2  0
  6  1  1  0
  7  8  2  0
  8  9  1  0
  9 10  2  0
 10 11  1  0
 11 12  2  0
 12  7  1  0
  3  7  1  0
  4 13  1  0
 13 14  2  0
 13 15  1  0
 15 16  1  0
 15 20  1  0
 16 17  1  0
 17 18  1  0
 18 19  1  0
 19 20  1  0
  6 21  1  0
 17 22  1  0
 22 23  1  0
 23 24  1  0
 24 25  2  0
 25 26  1  0
 26 27  2  0
 27 28  1  0
 28 29  2  0
 29 24  1  0
 27 30  1  0
 20 31  1  6
M  END
> <chembl_id>
CHEMBL3928138

$$$$

  SciTegic12221711382D

 22 24  0  0  0  0            999 V2000
    2.1338   -0.8832    0.0000 F   0  0
    2.5465   -1.5931    0.0000 C   0  0
    2.9549   -0.8807    0.0000 F   0  0
    0.4443   -4.4698    0.0000 C   0  0
    0.4432   -5.2893    0.0000 C   0  0
    1.1512   -5.6983    0.0000 C   0  0
    1.1494   -4.0609    0.0000 C   0  0
    1.8581   -4.4662    0.0000 C   0  0
    1.8614   -5.2913    0.0000 C   0  0
    2.5670   -4.0484    0.0000 C   0  0
    3.2874   -5.2855    0.0000 N   0  0
    2.5718   -5.6986    0.0000 N   0  0
    2.7435   -6.5069    0.0000 N   0  0
    3.5654   -6.5933    0.0000 C   0  0
    3.9014   -5.8384    0.0000 C   0  0
    3.2784   -4.4506    0.0000 O   0  0
    2.5598   -3.2312    0.0000 N   0  0
    3.2642   -2.8142    0.0000 C   0  0
    3.2589   -2.0006    0.0000 C   0  0
    1.8435   -2.0082    0.0000 C   0  0
    1.8472   -2.8280    0.0000 C   0  0
    3.9645   -1.5883    0.0000 O   0  0
  2  1  1  0
  3  2  1  0
  4  5  2  0
  5  6  1  0
  6  9  2  0
  8  7  2  0
  7  4  1  0
  8  9  1  0
  8 10  1  0
  9 12  1  0
 11 12  1  0
 12 13  1  0
 13 14  2  0
 14 15  1  0
 15 11  2  0
 10 16  2  0
 10 17  1  0
 17 18  1  0
 17 21  1  0
 18 19  1  0
 19  2  1  0
  2 20  1  0
 20 21  1  0
 19 22  1  0
M  END
> <chembl_id>
CHEMBL3955784

$$$$

  SciTegic12241700452D

 30 34  0  0  0  0            999 V2000
   18.5797  -14.5598    0.0000 C   0  0
   18.5785  -15.3872    0.0000 C   0  0
   19.2934  -15.8002    0.0000 C   0  0
   20.0099  -15.3868    0.0000 C   0  0
   20.0070  -14.5562    0.0000 C   0  0
   19.2916  -14.1469    0.0000 C   0  0
   19.2982  -16.6253    0.0000 N   0  0
   18.6306  -17.1101    0.0000 N   0  0
   18.8854  -17.8948    0.0000 C   0  0
   19.7106  -17.8950    0.0000 C   0  0
   19.9655  -17.1104    0.0000 N   0  0
   20.7251  -15.7981    0.0000 C   0  0
   20.7264  -16.6232    0.0000 O   0  0
   21.4390  -15.3845    0.0000 N   0  0
   22.1486  -15.7994    0.0000 C   0  0
   22.8603  -15.3892    0.0000 C   0  0  1  0  0  0
   22.8632  -14.5637    0.0000 C   0  0
   22.1483  -14.1502    0.0000 C   0  0
   21.4302  -14.5619    0.0000 C   0  0
   23.5739  -15.8033    0.0000 O   0  0
   24.2894  -15.3924    0.0000 C   0  0
   25.0001  -15.8072    0.0000 N   0  0
   24.9987  -14.1570    0.0000 C   0  0
   24.2867  -14.5697    0.0000 C   0  0
   25.7172  -14.5710    0.0000 C   0  0
   25.7126  -15.3956    0.0000 C   0  0
   26.4232  -15.8102    0.0000 C   0  0
   27.1389  -15.4013    0.0000 C   0  0
   27.1398  -14.5735    0.0000 C   0  0
   26.4286  -14.1627    0.0000 C   0  0
  1  2  2  0
  2  3  1  0
  3  4  2  0
  4  5  1  0
  5  6  2  0
  6  1  1  0
  7  8  1  0
  8  9  2  0
  9 10  1  0
 10 11  2  0
 11  7  1  0
  3  7  1  0
  4 12  1  0
 12 13  2  0
 12 14  1  0
 14 15  1  0
 14 19  1  0
 15 16  1  0
 16 17  1  0
 17 18  1  0
 18 19  1  0
 16 20  1  1
 20 21  1  0
 21 22  2  0
 22 26  1  0
 25 23  1  0
 23 24  2  0
 24 21  1  0
 25 26  1  0
 26 27  2  0
 27 28  1  0
 28 29  2  0
 29 30  1  0
 30 25  2  0
M  END
> <chembl_id>
CHEMBL3972735

$$$$

  SciTegic12241706272D

 30 34  0  0  0  0            999 V2000
   22.4026   -8.1141    0.0000 F   0  0
   22.8153   -8.8240    0.0000 C   0  0
   23.2237   -8.1116    0.0000 F   0  0
   20.7131  -11.7007    0.0000 C   0  0
   20.7120  -12.5202    0.0000 C   0  0
   21.4183  -11.2918    0.0000 C   0  0
   22.1269  -11.6971    0.0000 C   0  0
   22.8359  -11.2793    0.0000 C   0  0
   23.5472  -11.6815    0.0000 O   0  0
   22.8286  -10.4621    0.0000 N   0  0
   23.5330  -10.0451    0.0000 C   0  0
   23.5278   -9.2315    0.0000 C   0  0  2  0  0  0
   22.1124   -9.2391    0.0000 C   0  0
   22.1160  -10.0589    0.0000 C   0  0
   24.2333   -8.8192    0.0000 O   0  0
   24.9432   -9.2241    0.0000 C   0  0
   24.9424  -10.0385    0.0000 C   0  0
   25.6514  -10.4433    0.0000 C   0  0
   25.6414   -8.8084    0.0000 N   0  0
   26.3510   -9.2095    0.0000 C   0  0
   26.3539  -10.0274    0.0000 C   0  0
   27.0625  -10.4320    0.0000 C   0  0
   27.7687  -10.0198    0.0000 C   0  0
   27.7617   -9.1989    0.0000 C   0  0
   27.0526   -8.7980    0.0000 C   0  0
   22.1282  -12.5185    0.0000 C   0  0
   21.4192  -12.9270    0.0000 C   0  0
   21.5887  -13.7275    0.0000 N   0  0
   22.4024  -13.8138    0.0000 C   0  0
   22.7358  -13.0665    0.0000 N   0  0
  2  1  1  0
  3  2  1  0
  4  5  2  0
  5 27  1  0
  7  6  2  0
  6  4  1  0
  7 26  1  0
  7  8  1  0
  8  9  2  0
  8 10  1  0
 10 11  1  0
 10 14  1  0
 11 12  1  0
 12  2  1  0
  2 13  1  0
 13 14  1  0
 12 15  1  1
 15 16  1  0
 16 17  2  0
 17 18  1  0
 18 21  2  0
 20 19  2  0
 19 16  1  0
 20 21  1  0
 21 22  1  0
 22 23  2  0
 23 24  1  0
 24 25  2  0
 25 20  1  0
 26 27  2  0
 27 28  1  0
 28 29  1  0
 29 30  2  0
 30 26  1  0
M  END
> <chembl_id>
CHEMBL3981114

$$$$

  SciTegic12221702082D

 32 35  0  0  0  0            999 V2000
    2.0223  -22.5470    0.0000 F   0  0
    2.4351  -23.2569    0.0000 C   0  0
    2.8435  -22.5446    0.0000 F   0  0
    0.3329  -26.1336    0.0000 C   0  0
    0.3317  -26.9531    0.0000 C   0  0
    1.0398  -27.3621    0.0000 C   0  0
    1.0380  -25.7247    0.0000 C   0  0
    1.7466  -26.1300    0.0000 C   0  0
    1.7500  -26.9552    0.0000 C   0  0
    2.4556  -25.7122    0.0000 C   0  0
    3.1759  -26.9493    0.0000 N   0  0
    2.4603  -27.3625    0.0000 N   0  0
    2.6321  -28.1707    0.0000 N   0  0
    3.4540  -28.2572    0.0000 C   0  0
    3.7900  -27.5023    0.0000 C   0  0
    3.1669  -26.1145    0.0000 O   0  0
    2.4483  -24.8950    0.0000 N   0  0
    3.1528  -24.4781    0.0000 C   0  0
    3.1475  -23.6644    0.0000 C   0  0
    1.7321  -23.6720    0.0000 C   0  0
    1.7358  -24.4918    0.0000 C   0  0
    3.8531  -23.2521    0.0000 O   0  0
    4.5629  -23.6570    0.0000 C   0  0
    4.5621  -24.4714    0.0000 C   0  0
    5.2711  -24.8762    0.0000 C   0  0
    5.9777  -24.4638    0.0000 C   0  0
    5.9707  -23.6425    0.0000 C   0  0
    5.2611  -23.2414    0.0000 N   0  0
    6.6880  -24.8705    0.0000 C   0  0
    7.3344  -25.2381    0.0000 F   0  0
    6.8299  -25.7127    0.0000 F   0  0
    7.4843  -24.5618    0.0000 F   0  0
  2  1  1  0
  3  2  1  0
  4  5  2  0
  5  6  1  0
  6  9  2  0
  8  7  2  0
  7  4  1  0
  8  9  1  0
  8 10  1  0
  9 12  1  0
 11 12  1  0
 12 13  1  0
 13 14  2  0
 14 15  1  0
 15 11  2  0
 10 16  2  0
 10 17  1  0
 17 18  1  0
 17 21  1  0
 18 19  1  0
 19  2  1  0
  2 20  1  0
 20 21  1  0
 19 22  1  0
 22 23  1  0
 23 24  2  0
 24 25  1  0
 25 26  2  0
 26 27  1  0
 27 28  2  0
 28 23  1  0
 29 30  1  0
 29 31  1  0
 29 32  1  0
 26 29  1  0
M  END
> <chembl_id>
CHEMBL3941376

$$$$

  SciTegic12221711372D

 30 34  0  0  0  0            999 V2000
    9.4266  -22.9680    0.0000 F   0  0
    9.8393  -23.6779    0.0000 C   0  0
   10.2477  -22.9655    0.0000 F   0  0
    7.7371  -26.5546    0.0000 C   0  0
    7.7360  -27.3741    0.0000 C   0  0
    8.4422  -26.1457    0.0000 C   0  0
    9.1509  -26.5510    0.0000 C   0  0
    9.8599  -26.1332    0.0000 C   0  0
   10.5712  -26.5354    0.0000 O   0  0
    9.8526  -25.3160    0.0000 N   0  0
   10.5570  -24.8990    0.0000 C   0  0
   10.5517  -24.0854    0.0000 C   0  0  2  0  0  0
    9.1364  -24.0930    0.0000 C   0  0
    9.1400  -24.9128    0.0000 C   0  0
   11.2573  -23.6731    0.0000 O   0  0
   11.9671  -24.0780    0.0000 C   0  0
   11.9664  -24.8924    0.0000 C   0  0
   12.6754  -25.2972    0.0000 C   0  0
   12.6654  -23.6623    0.0000 N   0  0
   13.3750  -24.0634    0.0000 C   0  0
   13.3779  -24.8813    0.0000 C   0  0
   14.0865  -25.2859    0.0000 C   0  0
   14.7927  -24.8737    0.0000 C   0  0
   14.7857  -24.0528    0.0000 C   0  0
   14.0766  -23.6519    0.0000 C   0  0
    9.1522  -27.3723    0.0000 C   0  0
    8.4432  -27.7809    0.0000 N   0  0
    8.6127  -28.5814    0.0000 C   0  0
    9.4264  -28.6677    0.0000 N   0  0
    9.7598  -27.9204    0.0000 C   0  0
  2  1  1  0
  3  2  1  0
  4  5  2  0
  5 27  1  0
  7  6  2  0
  6  4  1  0
  7 26  1  0
  7  8  1  0
  8  9  2  0
  8 10  1  0
 10 11  1  0
 10 14  1  0
 11 12  1  0
 12  2  1  0
  2 13  1  0
 13 14  1  0
 12 15  1  1
 15 16  1  0
 16 17  2  0
 17 18  1  0
 18 21  2  0
 20 19  2  0
 19 16  1  0
 20 21  1  0
 21 22  1  0
 22 23  2  0
 23 24  1  0
 24 25  2  0
 25 20  1  0
 26 27  1  0
 27 28  1  0
 28 29  2  0
 29 30  1  0
 30 26  2  0
M  END
> <chembl_id>
CHEMBL3955752

$$$$

  SciTegic12211713162D

 31 35  0  0  0  0            999 V2000
    8.7910  -15.2873    0.0000 F   0  0
    9.2037  -15.9971    0.0000 C   0  0
    9.6121  -15.2848    0.0000 F   0  0
    7.1015  -18.8738    0.0000 C   0  0
    7.1004  -19.6933    0.0000 C   0  0
    7.8084  -20.1023    0.0000 C   0  0
    7.8067  -18.4649    0.0000 C   0  0
    8.5153  -18.8702    0.0000 C   0  0
    8.5187  -19.6954    0.0000 C   0  0
    9.2243  -18.4524    0.0000 C   0  0
    9.9446  -19.6895    0.0000 N   0  0
    9.2290  -20.1027    0.0000 N   0  0
    9.4008  -20.9110    0.0000 N   0  0
   10.2226  -20.9974    0.0000 C   0  0
   10.5586  -20.2425    0.0000 C   0  0
    9.9356  -18.8547    0.0000 O   0  0
    9.2170  -17.6352    0.0000 N   0  0
    9.9214  -17.2183    0.0000 C   0  0
    9.9162  -16.4047    0.0000 C   0  0
    8.5008  -16.4122    0.0000 C   0  0
    8.5044  -17.2320    0.0000 C   0  0
   10.6217  -15.9923    0.0000 O   0  0
   11.3316  -16.3972    0.0000 C   0  0
   11.4257  -17.2109    0.0000 N   0  0
   12.0807  -16.0624    0.0000 S   0  0
   12.6308  -16.6667    0.0000 C   0  0
   12.2242  -17.3724    0.0000 C   0  0
   12.6319  -18.0753    0.0000 C   0  0
   13.4462  -18.0737    0.0000 C   0  0
   13.8509  -17.3633    0.0000 C   0  0
   13.4408  -16.6634    0.0000 C   0  0
  2  1  1  0
  3  2  1  0
  4  5  2  0
  5  6  1  0
  6  9  2  0
  8  7  2  0
  7  4  1  0
  8  9  1  0
  8 10  1  0
  9 12  1  0
 11 12  1  0
 12 13  1  0
 13 14  2  0
 14 15  1  0
 15 11  2  0
 10 16  2  0
 10 17  1  0
 17 18  1  0
 17 21  1  0
 18 19  1  0
 19  2  1  0
  2 20  1  0
 20 21  1  0
 19 22  1  0
 22 23  1  0
 23 24  2  0
 24 27  1  0
 26 25  1  0
 25 23  1  0
 26 27  2  0
 27 28  1  0
 28 29  2  0
 29 30  1  0
 30 31  2  0
 31 26  1  0
M  END
> <chembl_id>
CHEMBL3923070

$$$$

  SciTegic12211711092D

 30 34  0  0  0  0            999 V2000
   15.3863   -7.9903    0.0000 F   0  0
   15.7990   -8.7002    0.0000 C   0  0
   16.2074   -7.9878    0.0000 F   0  0
   13.6969  -11.5768    0.0000 C   0  0
   13.6957  -12.3964    0.0000 C   0  0
   14.4020  -11.1680    0.0000 C   0  0
   15.1106  -11.5732    0.0000 C   0  0
   15.8196  -11.1554    0.0000 C   0  0
   16.5309  -11.5577    0.0000 O   0  0
   15.8123  -10.3383    0.0000 N   0  0
   16.5168   -9.9213    0.0000 C   0  0
   16.5115   -9.1077    0.0000 C   0  0  2  0  0  0
   15.0961   -9.1153    0.0000 C   0  0
   15.0998   -9.9351    0.0000 C   0  0
   17.2170   -8.6954    0.0000 O   0  0
   17.9269   -9.1003    0.0000 C   0  0
   17.9261   -9.9147    0.0000 C   0  0
   18.6351  -10.3195    0.0000 C   0  0
   18.6251   -8.6846    0.0000 N   0  0
   19.3347   -9.0857    0.0000 C   0  0
   19.3376   -9.9036    0.0000 C   0  0
   20.0462  -10.3081    0.0000 C   0  0
   20.7524   -9.8960    0.0000 C   0  0
   20.7455   -9.0751    0.0000 C   0  0
   20.0363   -8.6742    0.0000 C   0  0
   15.1119  -12.3946    0.0000 C   0  0
   14.4029  -12.8032    0.0000 C   0  0
   14.5724  -13.6037    0.0000 N   0  0
   15.3861  -13.6900    0.0000 N   0  0
   15.7195  -12.9427    0.0000 C   0  0
  2  1  1  0
  3  2  1  0
  4  5  2  0
  5 27  1  0
  7  6  2  0
  6  4  1  0
  7 26  1  0
  7  8  1  0
  8  9  2  0
  8 10  1  0
 10 11  1  0
 10 14  1  0
 11 12  1  0
 12  2  1  0
  2 13  1  0
 13 14  1  0
 12 15  1  1
 15 16  1  0
 16 17  2  0
 17 18  1  0
 18 21  2  0
 20 19  2  0
 19 16  1  0
 20 21  1  0
 21 22  1  0
 22 23  2  0
 23 24  1  0
 24 25  2  0
 25 20  1  0
 26 27  2  0
 27 28  1  0
 28 29  1  0
 29 30  2  0
 30 26  1  0
M  END
> <chembl_id>
CHEMBL3920035

$$$$

  SciTegic12241705202D

 32 35  0  0  0  0            999 V2000
   21.0943  -15.2212    0.0000 F   0  0
   21.5070  -15.9311    0.0000 C   0  0
   21.9154  -15.2187    0.0000 F   0  0
   19.4048  -18.8077    0.0000 C   0  0
   19.4037  -19.6273    0.0000 C   0  0
   20.1117  -20.0362    0.0000 C   0  0
   20.1099  -18.3989    0.0000 C   0  0
   20.8185  -18.8041    0.0000 C   0  0
   20.8219  -19.6293    0.0000 C   0  0
   21.5275  -18.3864    0.0000 C   0  0
   22.2479  -19.6235    0.0000 N   0  0
   21.5323  -20.0366    0.0000 N   0  0
   21.7040  -20.8449    0.0000 N   0  0
   22.5259  -20.9313    0.0000 C   0  0
   22.8619  -20.1764    0.0000 C   0  0
   22.2388  -18.7886    0.0000 O   0  0
   21.5203  -17.5692    0.0000 N   0  0
   22.2247  -17.1522    0.0000 C   0  0
   22.2194  -16.3386    0.0000 C   0  0
   20.8040  -16.3462    0.0000 C   0  0
   20.8077  -17.1660    0.0000 C   0  0
   22.9250  -15.9263    0.0000 O   0  0
   23.6348  -16.3312    0.0000 C   0  0
   23.6340  -17.1456    0.0000 C   0  0
   24.3431  -17.5504    0.0000 C   0  0
   25.0496  -17.1380    0.0000 C   0  0
   25.0426  -16.3166    0.0000 C   0  0
   24.3331  -15.9155    0.0000 N   0  0
   25.7497  -15.8987    0.0000 C   0  0
   26.3903  -15.5213    0.0000 F   0  0
   26.5505  -16.1952    0.0000 F   0  0
   25.8785  -15.0545    0.0000 F   0  0
  2  1  1  0
  3  2  1  0
  4  5  2  0
  5  6  1  0
  6  9  2  0
  8  7  2  0
  7  4  1  0
  8  9  1  0
  8 10  1  0
  9 12  1  0
 11 12  1  0
 12 13  1  0
 13 14  2  0
 14 15  1  0
 15 11  2  0
 10 16  2  0
 10 17  1  0
 17 18  1  0
 17 21  1  0
 18 19  1  0
 19  2  1  0
  2 20  1  0
 20 21  1  0
 19 22  1  0
 22 23  1  0
 23 24  2  0
 24 25  1  0
 25 26  2  0
 26 27  1  0
 27 28  2  0
 28 23  1  0
 29 30  1  0
 29 31  1  0
 29 32  1  0
 27 29  1  0
M  END
> <chembl_id>
CHEMBL3979470

$$$$

  SciTegic12201716242D

 30 34  0  0  0  0            999 V2000
    8.4608   -8.0811    0.0000 F   0  0
    8.8735   -8.7910    0.0000 C   0  0
    9.2820   -8.0786    0.0000 F   0  0
    6.7714  -11.6676    0.0000 C   0  0
    6.7702  -12.4872    0.0000 N   0  0
    7.4765  -11.2588    0.0000 C   0  0
    8.1851  -11.6640    0.0000 C   0  0
    8.8941  -11.2462    0.0000 C   0  0
    9.6054  -11.6485    0.0000 O   0  0
    8.8868  -10.4291    0.0000 N   0  0
    9.5913  -10.0121    0.0000 C   0  0
    9.5860   -9.1985    0.0000 C   0  0  2  0  0  0
    8.1706   -9.2061    0.0000 C   0  0
    8.1743  -10.0259    0.0000 C   0  0
   10.2915   -8.7862    0.0000 O   0  0
   11.0014   -9.1911    0.0000 C   0  0
   11.0006  -10.0055    0.0000 C   0  0
   11.7096  -10.4103    0.0000 C   0  0
   11.6996   -8.7754    0.0000 N   0  0
   12.4092   -9.1765    0.0000 C   0  0
   12.4121   -9.9944    0.0000 C   0  0
   13.1207  -10.3989    0.0000 C   0  0
   13.8269   -9.9868    0.0000 C   0  0
   13.8200   -9.1659    0.0000 C   0  0
   13.1108   -8.7650    0.0000 C   0  0
    8.1864  -12.4854    0.0000 C   0  0
    7.4775  -12.8940    0.0000 C   0  0
    7.6469  -13.6945    0.0000 N   0  0
    8.4606  -13.7808    0.0000 C   0  0
    8.7940  -13.0335    0.0000 C   0  0
  2  1  1  0
  3  2  1  0
  4  5  2  0
  5 27  1  0
  7  6  2  0
  6  4  1  0
  7 26  1  0
  7  8  1  0
  8  9  2  0
  8 10  1  0
 10 11  1  0
 10 14  1  0
 11 12  1  0
 12  2  1  0
  2 13  1  0
 13 14  1  0
 12 15  1  1
 15 16  1  0
 16 17  2  0
 17 18  1  0
 18 21  2  0
 20 19  2  0
 19 16  1  0
 20 21  1  0
 21 22  1  0
 22 23  2  0
 23 24  1  0
 24 25  2  0
 25 20  1  0
 26 27  2  0
 27 28  1  0
 28 29  1  0
 29 30  2  0
 30 26  1  0
M  END
> <chembl_id>
CHEMBL3892010

$$$$

  SciTegic12221713392D

 28 31  0  0  0  0            999 V2000
    9.2491   -0.8956    0.0000 F   0  0
    9.6618   -1.6055    0.0000 C   0  0
   10.0703   -0.8931    0.0000 F   0  0
    7.5597   -4.4821    0.0000 C   0  0
    7.5585   -5.3017    0.0000 C   0  0
    8.2666   -5.7106    0.0000 C   0  0
    8.2648   -4.0733    0.0000 C   0  0
    8.9734   -4.4785    0.0000 C   0  0
    8.9768   -5.3037    0.0000 C   0  0
    9.6824   -4.0607    0.0000 C   0  0
   10.3937   -4.4630    0.0000 O   0  0
    9.6751   -3.2436    0.0000 N   0  0
   10.3796   -2.8266    0.0000 C   0  0
   10.3743   -2.0130    0.0000 C   0  0
    8.9589   -2.0206    0.0000 C   0  0
    8.9626   -2.8403    0.0000 C   0  0
   11.0798   -1.6007    0.0000 O   0  0
   11.7897   -2.0056    0.0000 C   0  0
   11.7889   -2.8200    0.0000 C   0  0
   12.4979   -3.2248    0.0000 C   0  0
   12.4879   -1.5899    0.0000 N   0  0
   13.1975   -1.9910    0.0000 C   0  0
   13.2004   -2.8088    0.0000 C   0  0
   13.9090   -3.2134    0.0000 C   0  0
   14.6152   -2.8013    0.0000 C   0  0
   14.6083   -1.9804    0.0000 C   0  0
   13.8991   -1.5795    0.0000 C   0  0
    8.2651   -6.5278    0.0000 F   0  0
  2  1  1  0
  3  2  1  0
  4  5  2  0
  5  6  1  0
  6  9  2  0
  8  7  2  0
  7  4  1  0
  8  9  1  0
  8 10  1  0
 10 11  2  0
 10 12  1  0
 12 13  1  0
 12 16  1  0
 13 14  1  0
 14  2  1  0
  2 15  1  0
 15 16  1  0
 14 17  1  0
 17 18  1  0
 18 19  2  0
 19 20  1  0
 20 23  2  0
 22 21  2  0
 21 18  1  0
 22 23  1  0
 23 24  1  0
 24 25  2  0
 25 26  1  0
 26 27  2  0
 27 22  1  0
  6 28  1  0
M  END
> <chembl_id>
CHEMBL3958817

$$$$

  SciTegic12221715352D

 30 33  0  0  0  0            999 V2000
    1.7541  -13.9253    0.0000 F   0  0
    2.1668  -14.6352    0.0000 C   0  0
    2.5752  -13.9228    0.0000 F   0  0
    0.0646  -17.5118    0.0000 C   0  0
    0.0635  -18.3313    0.0000 C   0  0
    0.7715  -18.7403    0.0000 C   0  0
    0.7697  -17.1029    0.0000 C   0  0
    1.4783  -17.5082    0.0000 C   0  0
    1.4817  -18.3334    0.0000 C   0  0
    2.1873  -17.0904    0.0000 C   0  0
    2.8987  -17.4927    0.0000 O   0  0
    2.1801  -16.2732    0.0000 N   0  0
    2.8845  -15.8563    0.0000 C   0  0
    2.8792  -15.0427    0.0000 C   0  0
    1.4638  -15.0502    0.0000 C   0  0
    1.4675  -15.8700    0.0000 C   0  0
    3.5848  -14.6304    0.0000 O   0  0
    4.2946  -15.0352    0.0000 C   0  0
    4.2939  -15.8496    0.0000 C   0  0
    5.0029  -16.2544    0.0000 C   0  0
    4.9929  -14.6196    0.0000 N   0  0
    5.7024  -15.0207    0.0000 C   0  0
    5.7054  -15.8385    0.0000 C   0  0
    6.4140  -16.2431    0.0000 C   0  0
    7.1201  -15.8310    0.0000 C   0  0
    7.1132  -15.0100    0.0000 C   0  0
    6.4041  -14.6091    0.0000 C   0  0
    0.7693  -19.5536    0.0000 O   0  0
    1.4762  -19.9634    0.0000 C   0  0
    0.7673  -16.2857    0.0000 F   0  0
  2  1  1  0
  3  2  1  0
  4  5  2  0
  5  6  1  0
  6  9  2  0
  8  7  2  0
  7  4  1  0
  8  9  1  0
  8 10  1  0
 10 11  2  0
 10 12  1  0
 12 13  1  0
 12 16  1  0
 13 14  1  0
 14  2  1  0
  2 15  1  0
 15 16  1  0
 14 17  1  0
 17 18  1  0
 18 19  2  0
 19 20  1  0
 20 23  2  0
 22 21  2  0
 21 18  1  0
 22 23  1  0
 23 24  1  0
 24 25  2  0
 25 26  1  0
 26 27  2  0
 27 22  1  0
 28 29  1  0
  6 28  1  0
  7 30  1  0
M  END
> <chembl_id>
CHEMBL3961795

$$$$

  SciTegic12201719482D

 32 36  0  0  0  0            999 V2000
    9.1459   -8.4649    0.0000 F   0  0
    9.5587   -9.1748    0.0000 C   0  0
    9.9671   -8.4625    0.0000 F   0  0
    7.4565  -12.0515    0.0000 C   0  0
    7.4553  -12.8710    0.0000 C   0  0
    8.1634  -13.2800    0.0000 C   0  0
    8.1616  -11.6426    0.0000 C   0  0
    8.8702  -12.0479    0.0000 C   0  0
    8.8736  -12.8731    0.0000 C   0  0
    9.5792  -11.6301    0.0000 C   0  0
   10.2995  -12.8672    0.0000 N   0  0
    9.5839  -13.2804    0.0000 N   0  0
    9.7557  -14.0886    0.0000 N   0  0
   10.5776  -14.1751    0.0000 C   0  0
   10.9136  -13.4202    0.0000 C   0  0
   10.2905  -12.0324    0.0000 O   0  0
    9.5719  -10.8129    0.0000 N   0  0
   10.2764  -10.3960    0.0000 C   0  0
   10.2711   -9.5823    0.0000 C   0  0
    8.8557   -9.5899    0.0000 C   0  0
    8.8594  -10.4097    0.0000 C   0  0
   10.9766   -9.1700    0.0000 O   0  0
   11.6865   -9.5749    0.0000 C   0  0
   11.6857  -10.3893    0.0000 C   0  0
   12.3947  -10.7941    0.0000 N   0  0
   12.3847   -9.1593    0.0000 N   0  0
   13.0943   -9.5603    0.0000 C   0  0
   13.0973  -10.3782    0.0000 C   0  0
   13.8059  -10.7828    0.0000 C   0  0
   14.5120  -10.3707    0.0000 C   0  0
   14.5051   -9.5497    0.0000 C   0  0
   13.7959   -9.1488    0.0000 C   0  0
  2  1  1  0
  3  2  1  0
  4  5  2  0
  5  6  1  0
  6  9  2  0
  8  7  2  0
  7  4  1  0
  8  9  1  0
  8 10  1  0
  9 12  1  0
 11 12  1  0
 12 13  1  0
 13 14  2  0
 14 15  1  0
 15 11  2  0
 10 16  2  0
 10 17  1  0
 17 18  1  0
 17 21  1  0
 18 19  1  0
 19  2  1  0
  2 20  1  0
 20 21  1  0
 19 22  1  0
 22 23  1  0
 23 24  2  0
 24 25  1  0
 25 28  2  0
 27 26  2  0
 26 23  1  0
 27 28  1  0
 28 29  1  0
 29 30  2  0
 30 31  1  0
 31 32  2  0
 32 27  1  0
M  END
> <chembl_id>
CHEMBL3897218

$$$$

  SciTegic12211718092D

 32 36  0  0  0  0            999 V2000
   15.0355  -21.9197    0.0000 F   0  0
   15.4482  -22.6296    0.0000 C   0  0
   15.8566  -21.9172    0.0000 F   0  0
   13.3460  -25.5062    0.0000 C   0  0
   13.3449  -26.3258    0.0000 C   0  0
   14.0529  -26.7347    0.0000 C   0  0
   14.0512  -25.0974    0.0000 C   0  0
   14.7598  -25.5026    0.0000 C   0  0
   14.7632  -26.3278    0.0000 C   0  0
   15.4688  -25.0848    0.0000 C   0  0
   16.1801  -25.4871    0.0000 O   0  0
   15.4615  -24.2677    0.0000 N   0  0
   16.1659  -23.8507    0.0000 C   0  0
   16.1607  -23.0371    0.0000 C   0  0  2  0  0  0
   14.7453  -23.0447    0.0000 C   0  0
   14.7489  -23.8645    0.0000 C   0  0
   16.8662  -22.6248    0.0000 O   0  0
   17.5761  -23.0297    0.0000 C   0  0
   17.5753  -23.8441    0.0000 C   0  0
   18.2843  -24.2489    0.0000 C   0  0
   18.2743  -22.6140    0.0000 N   0  0
   18.9839  -23.0151    0.0000 C   0  0
   18.9868  -23.8330    0.0000 C   0  0
   19.6954  -24.2375    0.0000 C   0  0
   20.4016  -23.8254    0.0000 C   0  0
   20.3946  -23.0045    0.0000 C   0  0
   19.6855  -22.6036    0.0000 C   0  0
   14.0517  -27.5554    0.0000 C   0  0
   13.3898  -28.0346    0.0000 N   0  0
   13.6410  -28.8122    0.0000 C   0  0
   14.4582  -28.8136    0.0000 C   0  0
   14.7120  -28.0369    0.0000 N   0  0
  2  1  1  0
  3  2  1  0
  4  5  2  0
  5  6  1  0
  6  9  2  0
  8  7  2  0
  7  4  1  0
  8  9  1  0
  8 10  1  0
 10 11  2  0
 10 12  1  0
 12 13  1  0
 12 16  1  0
 13 14  1  0
 14  2  1  0
  2 15  1  0
 15 16  1  0
 14 17  1  1
 17 18  1  0
 18 19  2  0
 19 20  1  0
 20 23  2  0
 22 21  2  0
 21 18  1  0
 22 23  1  0
 23 24  1  0
 24 25  2  0
 25 26  1  0
 26 27  2  0
 27 22  1  0
 28 29  2  0
 29 30  1  0
 30 31  2  0
 31 32  1  0
 32 28  1  0
  6 28  1  0
M  END
> <chembl_id>
CHEMBL3930252

$$$$

  SciTegic12211720572D

 31 34  0  0  0  0            999 V2000
    8.6094  -14.5402    0.0000 F   0  0
    9.0221  -15.2501    0.0000 C   0  0
    9.4305  -14.5377    0.0000 F   0  0
    6.9199  -18.1267    0.0000 C   0  0
    6.9188  -18.9463    0.0000 C   0  0
    7.6268  -19.3553    0.0000 C   0  0
    7.6251  -17.7179    0.0000 C   0  0
    8.3337  -18.1232    0.0000 C   0  0
    8.3371  -18.9483    0.0000 C   0  0
    9.0427  -17.7054    0.0000 C   0  0
    9.7540  -18.1076    0.0000 O   0  0
    9.0354  -16.8882    0.0000 N   0  0
    9.7399  -16.4712    0.0000 C   0  0
    9.7346  -15.6576    0.0000 C   0  0  2  0  0  0
    8.3192  -15.6652    0.0000 C   0  0
    8.3228  -16.4850    0.0000 C   0  0
   10.4401  -15.2453    0.0000 O   0  0
   11.1500  -15.6502    0.0000 C   0  0
   11.1492  -16.4646    0.0000 C   0  0
   11.8582  -16.8694    0.0000 C   0  0
   11.8482  -15.2345    0.0000 N   0  0
   12.5578  -15.6356    0.0000 C   0  0
   12.5607  -16.4535    0.0000 C   0  0
   13.2693  -16.8581    0.0000 C   0  0
   13.9755  -16.4459    0.0000 C   0  0
   13.9686  -15.6250    0.0000 C   0  0
   13.2594  -15.2241    0.0000 C   0  0
    7.6246  -20.1686    0.0000 O   0  0
    8.3316  -20.5784    0.0000 C   0  0
    7.6226  -16.9007    0.0000 F   0  0
    9.0449  -19.3567    0.0000 F   0  0
  2  1  1  0
  3  2  1  0
  4  5  2  0
  5  6  1  0
  6  9  2  0
  8  7  2  0
  7  4  1  0
  8  9  1  0
  8 10  1  0
 10 11  2  0
 10 12  1  0
 12 13  1  0
 12 16  1  0
 13 14  1  0
 14  2  1  0
  2 15  1  0
 15 16  1  0
 14 17  1  1
 17 18  1  0
 18 19  2  0
 19 20  1  0
 20 23  2  0
 22 21  2  0
 21 18  1  0
 22 23  1  0
 23 24  1  0
 24 25  2  0
 25 26  1  0
 26 27  2  0
 27 22  1  0
 28 29  1  0
  6 28  1  0
  7 30  1  0
  9 31  1  0
M  END
> <chembl_id>
CHEMBL3934291

$$$$

  SciTegic12201716512D

 32 36  0  0  0  0            999 V2000
   15.2625  -14.8250    0.0000 F   0  0
   15.6752  -15.5349    0.0000 C   0  0
   16.0836  -14.8225    0.0000 F   0  0
   13.5730  -18.4115    0.0000 C   0  0
   13.5719  -19.2311    0.0000 C   0  0
   14.2799  -19.6400    0.0000 C   0  0
   14.2781  -18.0027    0.0000 C   0  0
   14.9868  -18.4079    0.0000 C   0  0
   14.9902  -19.2331    0.0000 C   0  0
   15.6958  -17.9901    0.0000 C   0  0
   16.4071  -18.3924    0.0000 O   0  0
   15.6885  -17.1730    0.0000 N   0  0
   16.3929  -16.7560    0.0000 C   0  0
   16.3877  -15.9424    0.0000 C   0  0  2  0  0  0
   14.9723  -15.9500    0.0000 C   0  0
   14.9759  -16.7697    0.0000 C   0  0
   17.0932  -15.5301    0.0000 O   0  0
   17.8030  -15.9350    0.0000 C   0  0
   17.8023  -16.7494    0.0000 C   0  0
   18.5113  -17.1542    0.0000 C   0  0
   18.5013  -15.5193    0.0000 N   0  0
   19.2109  -15.9204    0.0000 C   0  0
   19.2138  -16.7382    0.0000 C   0  0
   19.9224  -17.1428    0.0000 C   0  0
   20.6286  -16.7307    0.0000 C   0  0
   20.6216  -15.9098    0.0000 C   0  0
   19.9125  -15.5089    0.0000 C   0  0
   15.7022  -19.6386    0.0000 N   0  0
   15.7880  -20.4512    0.0000 C   0  0
   16.5874  -20.6208    0.0000 C   0  0
   16.9957  -19.9129    0.0000 C   0  0
   16.4486  -19.3059    0.0000 N   0  0
  2  1  1  0
  3  2  1  0
  4  5  2  0
  5  6  1  0
  6  9  2  0
  8  7  2  0
  7  4  1  0
  8  9  1  0
  8 10  1  0
 10 11  2  0
 10 12  1  0
 12 13  1  0
 12 16  1  0
 13 14  1  0
 14  2  1  0
  2 15  1  0
 15 16  1  0
 14 17  1  1
 17 18  1  0
 18 19  2  0
 19 20  1  0
 20 23  2  0
 22 21  2  0
 21 18  1  0
 22 23  1  0
 23 24  1  0
 24 25  2  0
 25 26  1  0
 26 27  2  0
 27 22  1  0
 28 29  1  0
 29 30  2  0
 30 31  1  0
 31 32  2  0
 32 28  1  0
  9 28  1  0
M  END
> <chembl_id>
CHEMBL3892723

$$$$

  SciTegic12221704032D

 32 36  0  0  0  0            999 V2000
    2.2287  -21.3006    0.0000 F   0  0
    2.6414  -22.0105    0.0000 C   0  0
    3.0498  -21.2981    0.0000 F   0  0
    0.5392  -24.8872    0.0000 C   0  0
    0.5381  -25.7067    0.0000 C   0  0
    1.2461  -26.1157    0.0000 C   0  0
    1.2444  -24.4783    0.0000 C   0  0
    1.9530  -24.8836    0.0000 C   0  0
    1.9564  -25.7087    0.0000 C   0  0
    2.6620  -24.4658    0.0000 C   0  0
    3.3733  -24.8680    0.0000 O   0  0
    2.6547  -23.6486    0.0000 N   0  0
    3.3592  -23.2316    0.0000 C   0  0
    3.3539  -22.4180    0.0000 C   0  0  2  0  0  0
    1.9385  -22.4256    0.0000 C   0  0
    1.9421  -23.2454    0.0000 C   0  0
    4.0594  -22.0057    0.0000 O   0  0
    4.7693  -22.4106    0.0000 C   0  0
    4.7685  -23.2250    0.0000 C   0  0
    5.4775  -23.6298    0.0000 C   0  0
    5.4675  -21.9949    0.0000 N   0  0
    6.1771  -22.3960    0.0000 C   0  0
    6.1800  -23.2139    0.0000 C   0  0
    6.8886  -23.6185    0.0000 C   0  0
    7.5948  -23.2063    0.0000 C   0  0
    7.5879  -22.3854    0.0000 C   0  0
    6.8787  -21.9845    0.0000 C   0  0
    1.2449  -26.9363    0.0000 N   0  0
    0.5830  -27.4155    0.0000 N   0  0
    0.8342  -28.1931    0.0000 C   0  0
    1.6514  -28.1945    0.0000 C   0  0
    1.9052  -27.4178    0.0000 N   0  0
  2  1  1  0
  3  2  1  0
  4  5  2  0
  5  6  1  0
  6  9  2  0
  8  7  2  0
  7  4  1  0
  8  9  1  0
  8 10  1  0
 10 11  2  0
 10 12  1  0
 12 13  1  0
 12 16  1  0
 13 14  1  0
 14  2  1  0
  2 15  1  0
 15 16  1  0
 14 17  1  1
 17 18  1  0
 18 19  2  0
 19 20  1  0
 20 23  2  0
 22 21  2  0
 21 18  1  0
 22 23  1  0
 23 24  1  0
 24 25  2  0
 25 26  1  0
 26 27  2  0
 27 22  1  0
 28 29  1  0
 29 30  2  0
 30 31  1  0
 31 32  2  0
 32 28  1  0
  6 28  1  0
M  END
> <chembl_id>
CHEMBL3944339

$$$$

  SciTegic12241700592D

 30 34  0  0  0  0            999 V2000
    8.9354  -15.0933    0.0000 F   0  0
    9.3482  -15.8032    0.0000 C   0  0
    9.7566  -15.0908    0.0000 F   0  0
    7.2460  -18.6798    0.0000 C   0  0
    7.2449  -19.4993    0.0000 C   0  0
    7.9511  -18.2709    0.0000 N   0  0
    8.6597  -18.6762    0.0000 C   0  0
    9.3687  -18.2584    0.0000 C   0  0
   10.0800  -18.6607    0.0000 O   0  0
    9.3614  -17.4412    0.0000 N   0  0
   10.0659  -17.0243    0.0000 C   0  0
   10.0606  -16.2107    0.0000 C   0  0  2  0  0  0
    8.6452  -16.2182    0.0000 C   0  0
    8.6489  -17.0380    0.0000 C   0  0
   10.7662  -15.7984    0.0000 O   0  0
   11.4760  -16.2032    0.0000 C   0  0
   11.4752  -17.0177    0.0000 C   0  0
   12.1842  -17.4224    0.0000 C   0  0
   12.1743  -15.7876    0.0000 N   0  0
   12.8838  -16.1887    0.0000 C   0  0
   12.8868  -17.0065    0.0000 C   0  0
   13.5954  -17.4111    0.0000 C   0  0
   14.3015  -16.9990    0.0000 C   0  0
   14.2946  -16.1780    0.0000 C   0  0
   13.5854  -15.7772    0.0000 C   0  0
    8.6610  -19.4976    0.0000 C   0  0
    7.9521  -19.9061    0.0000 C   0  0
    8.1215  -20.7067    0.0000 N   0  0
    8.9353  -20.7929    0.0000 C   0  0
    9.2686  -20.0457    0.0000 N   0  0
  2  1  1  0
  3  2  1  0
  4  5  2  0
  5 27  1  0
  7  6  2  0
  6  4  1  0
  7 26  1  0
  7  8  1  0
  8  9  2  0
  8 10  1  0
 10 11  1  0
 10 14  1  0
 11 12  1  0
 12  2  1  0
  2 13  1  0
 13 14  1  0
 12 15  1  1
 15 16  1  0
 16 17  2  0
 17 18  1  0
 18 21  2  0
 20 19  2  0
 19 16  1  0
 20 21  1  0
 21 22  1  0
 22 23  2  0
 23 24  1  0
 24 25  2  0
 25 20  1  0
 26 27  2  0
 27 28  1  0
 28 29  1  0
 29 30  2  0
 30 26  1  0
M  END
> <chembl_id>
CHEMBL3973097

$$$$

  SciTegic12221713262D

 32 36  0  0  0  0            999 V2000
    8.7208  -21.1520    0.0000 F   0  0
    9.1336  -21.8619    0.0000 C   0  0
    9.5420  -21.1496    0.0000 F   0  0
    7.0314  -24.7386    0.0000 C   0  0
    7.0302  -25.5581    0.0000 C   0  0
    7.7383  -25.9671    0.0000 C   0  0
    7.7365  -24.3297    0.0000 C   0  0
    8.4451  -24.7350    0.0000 C   0  0
    8.4485  -25.5602    0.0000 C   0  0
    9.1541  -24.3172    0.0000 C   0  0
    9.8654  -24.7195    0.0000 O   0  0
    9.1468  -23.5000    0.0000 N   0  0
    9.8513  -23.0831    0.0000 C   0  0
    9.8460  -22.2694    0.0000 C   0  0  2  0  0  0
    8.4306  -22.2770    0.0000 C   0  0
    8.4343  -23.0968    0.0000 C   0  0
   10.5515  -21.8571    0.0000 O   0  0
   11.2614  -22.2620    0.0000 C   0  0
   11.2606  -23.0764    0.0000 C   0  0
   11.9696  -23.4812    0.0000 C   0  0
   11.9596  -21.8464    0.0000 N   0  0
   12.6692  -22.2474    0.0000 C   0  0
   12.6721  -23.0653    0.0000 C   0  0
   13.3808  -23.4699    0.0000 C   0  0
   14.0869  -23.0578    0.0000 C   0  0
   14.0800  -22.2368    0.0000 C   0  0
   13.3708  -21.8359    0.0000 C   0  0
    7.7371  -26.7877    0.0000 N   0  0
    7.0751  -27.2669    0.0000 N   0  0
    7.3263  -28.0445    0.0000 C   0  0
    8.1435  -28.0460    0.0000 C   0  0
    8.3973  -27.2692    0.0000 C   0  0
  2  1  1  0
  3  2  1  0
  4  5  2  0
  5  6  1  0
  6  9  2  0
  8  7  2  0
  7  4  1  0
  8  9  1  0
  8 10  1  0
 10 11  2  0
 10 12  1  0
 12 13  1  0
 12 16  1  0
 13 14  1  0
 14  2  1  0
  2 15  1  0
 15 16  1  0
 14 17  1  1
 17 18  1  0
 18 19  2  0
 19 20  1  0
 20 23  2  0
 22 21  2  0
 21 18  1  0
 22 23  1  0
 23 24  1  0
 24 25  2  0
 25 26  1  0
 26 27  2  0
 27 22  1  0
 28 29  1  0
 29 30  2  0
 30 31  1  0
 31 32  2  0
 32 28  1  0
  6 28  1  0
M  END
> <chembl_id>
CHEMBL3958483

$$$$

  SciTegic12201722172D

 31 35  0  0  0  0            999 V2000
    1.8160   -0.7388    0.0000 F   0  0
    2.2287   -1.4487    0.0000 C   0  0
    2.6371   -0.7363    0.0000 F   0  0
    0.1265   -4.3253    0.0000 C   0  0
    0.1254   -5.1448    0.0000 C   0  0
    0.8316   -3.9164    0.0000 C   0  0
    1.5403   -4.3217    0.0000 C   0  0
    2.2492   -3.9039    0.0000 C   0  0
    2.9606   -4.3062    0.0000 O   0  0
    2.2420   -3.0867    0.0000 N   0  0
    2.9464   -2.6698    0.0000 C   0  0
    2.9411   -1.8562    0.0000 C   0  0
    1.5257   -1.8637    0.0000 C   0  0
    1.5294   -2.6835    0.0000 C   0  0
    3.6467   -1.4439    0.0000 O   0  0
    4.3565   -1.8487    0.0000 C   0  0
    4.3558   -2.6632    0.0000 C   0  0
    5.0648   -3.0679    0.0000 C   0  0
    5.0548   -1.4331    0.0000 N   0  0
    5.7644   -1.8342    0.0000 C   0  0
    5.7673   -2.6520    0.0000 C   0  0
    6.4759   -3.0566    0.0000 C   0  0
    7.1821   -2.6445    0.0000 C   0  0
    7.1751   -1.8235    0.0000 C   0  0
    6.4660   -1.4227    0.0000 C   0  0
    1.5436   -5.1469    0.0000 C   0  0
    0.8326   -5.5516    0.0000 C   0  0
    0.8286   -6.3679    0.0000 N   0  0
    1.5349   -6.7804    0.0000 C   0  0
    2.2467   -6.3707    0.0000 C   0  0
    2.2472   -5.5557    0.0000 C   0  0
  2  1  1  0
  3  2  1  0
  4  5  2  0
  5 27  1  0
  7  6  2  0
  6  4  1  0
  7 26  1  0
  7  8  1  0
  8  9  2  0
  8 10  1  0
 10 11  1  0
 10 14  1  0
 11 12  1  0
 12  2  1  0
  2 13  1  0
 13 14  1  0
 12 15  1  0
 15 16  1  0
 16 17  2  0
 17 18  1  0
 18 21  2  0
 20 19  2  0
 19 16  1  0
 20 21  1  0
 21 22  1  0
 22 23  2  0
 23 24  1  0
 24 25  2  0
 25 20  1  0
 26 27  1  0
 27 28  2  0
 28 29  1  0
 29 30  2  0
 30 31  1  0
 31 26  2  0
M  END
> <chembl_id>
CHEMBL3900658

$$$$

  SciTegic12241700092D

 30 34  0  0  0  0            999 V2000
    9.0180   -1.2671    0.0000 F   0  0
    9.4307   -1.9769    0.0000 C   0  0
    9.8391   -1.2646    0.0000 F   0  0
    7.3285   -4.8536    0.0000 C   0  0
    7.3274   -5.6731    0.0000 C   0  0
    8.0337   -4.4447    0.0000 C   0  0
    8.7423   -4.8500    0.0000 C   0  0
    9.4513   -4.4322    0.0000 C   0  0
   10.1626   -4.8345    0.0000 O   0  0
    9.4440   -3.6150    0.0000 N   0  0
   10.1484   -3.1981    0.0000 C   0  0
   10.1432   -2.3845    0.0000 C   0  0  2  0  0  0
    8.7278   -2.3920    0.0000 C   0  0
    8.7314   -3.2118    0.0000 C   0  0
   10.8487   -1.9721    0.0000 O   0  0
   11.5586   -2.3770    0.0000 C   0  0
   11.5578   -3.1914    0.0000 C   0  0
   12.2668   -3.5962    0.0000 C   0  0
   12.2568   -1.9614    0.0000 N   0  0
   12.9664   -2.3625    0.0000 C   0  0
   12.9693   -3.1803    0.0000 C   0  0
   13.6779   -3.5849    0.0000 C   0  0
   14.3841   -3.1728    0.0000 C   0  0
   14.3771   -2.3518    0.0000 C   0  0
   13.6680   -1.9509    0.0000 C   0  0
    8.7436   -5.6714    0.0000 C   0  0
    8.0346   -6.0799    0.0000 C   0  0
    8.2041   -6.8805    0.0000 N   0  0
    9.0178   -6.9667    0.0000 C   0  0
    9.3512   -6.2194    0.0000 C   0  0
  2  1  1  0
  3  2  1  0
  4  5  2  0
  5 27  1  0
  7  6  2  0
  6  4  1  0
  7 26  1  0
  7  8  1  0
  8  9  2  0
  8 10  1  0
 10 11  1  0
 10 14  1  0
 11 12  1  0
 12  2  1  0
  2 13  1  0
 13 14  1  0
 12 15  1  1
 15 16  1  0
 16 17  2  0
 17 18  1  0
 18 21  2  0
 20 19  2  0
 19 16  1  0
 20 21  1  0
 21 22  1  0
 22 23  2  0
 23 24  1  0
 24 25  2  0
 25 20  1  0
 26 27  2  0
 27 28  1  0
 28 29  1  0
 29 30  2  0
 30 26  1  0
M  END
> <chembl_id>
CHEMBL3971815

$$$$

  SciTegic12241704312D

 29 32  0  0  0  0            999 V2000
   17.0331   -7.1649    0.0000 F   0  0
   17.4458   -7.8748    0.0000 C   0  0
   17.8542   -7.1624    0.0000 F   0  0
   15.3436  -10.7514    0.0000 C   0  0
   15.3425  -11.5709    0.0000 C   0  0
   16.0505  -11.9799    0.0000 C   0  0
   16.0487  -10.3425    0.0000 C   0  0
   16.7574  -10.7478    0.0000 C   0  0
   16.7607  -11.5730    0.0000 C   0  0
   17.4663  -10.3300    0.0000 C   0  0
   18.1777  -10.7323    0.0000 O   0  0
   17.4591   -9.5128    0.0000 N   0  0
   18.1635   -9.0959    0.0000 C   0  0
   18.1582   -8.2823    0.0000 C   0  0
   16.7428   -8.2898    0.0000 C   0  0
   16.7465   -9.1096    0.0000 C   0  0
   18.8638   -7.8700    0.0000 O   0  0
   19.5736   -8.2748    0.0000 C   0  0
   19.5729   -9.0892    0.0000 C   0  0
   20.2819   -9.4940    0.0000 C   0  0
   20.2719   -7.8592    0.0000 N   0  0
   20.9814   -8.2603    0.0000 C   0  0
   20.9844   -9.0781    0.0000 C   0  0
   21.6930   -9.4827    0.0000 C   0  0
   22.3991   -9.0706    0.0000 C   0  0
   22.3922   -8.2496    0.0000 C   0  0
   21.6831   -7.8487    0.0000 C   0  0
   16.0483  -12.7932    0.0000 O   0  0
   16.7552  -13.2030    0.0000 C   0  0
  2  1  1  0
  3  2  1  0
  4  5  2  0
  5  6  1  0
  6  9  2  0
  8  7  2  0
  7  4  1  0
  8  9  1  0
  8 10  1  0
 10 11  2  0
 10 12  1  0
 12 13  1  0
 12 16  1  0
 13 14  1  0
 14  2  1  0
  2 15  1  0
 15 16  1  0
 14 17  1  0
 17 18  1  0
 18 19  2  0
 19 20  1  0
 20 23  2  0
 22 21  2  0
 21 18  1  0
 22 23  1  0
 23 24  1  0
 24 25  2  0
 25 26  1  0
 26 27  2  0
 27 22  1  0
 28 29  1  0
  6 28  1  0
M  END
> <chembl_id>
CHEMBL3978250

$$$$

  SciTegic12241703352D

 32 36  0  0  0  0            999 V2000
   16.0054   -8.4361    0.0000 F   0  0
   16.4181   -9.1459    0.0000 C   0  0
   16.8265   -8.4336    0.0000 F   0  0
   14.3159  -12.0226    0.0000 C   0  0
   14.3148  -12.8421    0.0000 C   0  0
   15.0228  -13.2511    0.0000 C   0  0
   15.0210  -11.6137    0.0000 C   0  0
   15.7297  -12.0190    0.0000 C   0  0
   15.7331  -12.8442    0.0000 C   0  0
   16.4387  -11.6012    0.0000 C   0  0
   17.1590  -12.8383    0.0000 N   0  0
   16.4434  -13.2515    0.0000 N   0  0
   16.6152  -14.0598    0.0000 N   0  0
   17.4370  -14.1462    0.0000 C   0  0
   17.7730  -13.3913    0.0000 C   0  0
   17.1500  -12.0035    0.0000 O   0  0
   16.4314  -10.7840    0.0000 N   0  0
   17.1358  -10.3671    0.0000 C   0  0
   17.1306   -9.5535    0.0000 C   0  0
   15.7152   -9.5610    0.0000 C   0  0
   15.7188  -10.3808    0.0000 C   0  0
   17.8361   -9.1411    0.0000 O   0  0
   18.5459   -9.5460    0.0000 C   0  0
   18.5452  -10.3604    0.0000 C   0  0
   19.2542  -10.7652    0.0000 C   0  0
   19.2442   -9.1304    0.0000 N   0  0
   19.9538   -9.5315    0.0000 C   0  0
   19.9567  -10.3493    0.0000 C   0  0
   20.6653  -10.7539    0.0000 C   0  0
   21.3715  -10.3418    0.0000 C   0  0
   21.3645   -9.5208    0.0000 C   0  0
   20.6554   -9.1199    0.0000 N   0  0
  2  1  1  0
  3  2  1  0
  4  5  2  0
  5  6  1  0
  6  9  2  0
  8  7  2  0
  7  4  1  0
  8  9  1  0
  8 10  1  0
  9 12  1  0
 11 12  1  0
 12 13  1  0
 13 14  2  0
 14 15  1  0
 15 11  2  0
 10 16  2  0
 10 17  1  0
 17 18  1  0
 17 21  1  0
 18 19  1  0
 19  2  1  0
  2 20  1  0
 20 21  1  0
 19 22  1  0
 22 23  1  0
 23 24  2  0
 24 25  1  0
 25 28  2  0
 27 26  2  0
 26 23  1  0
 27 28  1  0
 28 29  1  0
 29 30  2  0
 30 31  1  0
 31 32  2  0
 32 27  1  0
M  END
> <chembl_id>
CHEMBL3976856

$$$$

  SciTegic12211714522D

 32 36  0  0  0  0            999 V2000
   21.8372  -21.6432    0.0000 F   0  0
   22.2499  -22.3531    0.0000 C   0  0
   22.6583  -21.6407    0.0000 F   0  0
   20.1477  -25.2297    0.0000 C   0  0
   20.1466  -26.0492    0.0000 C   0  0
   20.8546  -26.4582    0.0000 C   0  0
   20.8528  -24.8208    0.0000 C   0  0
   21.5614  -25.2261    0.0000 C   0  0
   21.5648  -26.0513    0.0000 C   0  0
   22.2704  -24.8083    0.0000 C   0  0
   22.9817  -25.2106    0.0000 O   0  0
   22.2632  -23.9912    0.0000 N   0  0
   22.9676  -23.5742    0.0000 C   0  0
   22.9623  -22.7606    0.0000 C   0  0  2  0  0  0
   21.5469  -22.7681    0.0000 C   0  0
   21.5506  -23.5879    0.0000 C   0  0
   23.6679  -22.3483    0.0000 O   0  0
   24.3777  -22.7531    0.0000 C   0  0
   24.3769  -23.5676    0.0000 C   0  0
   25.0860  -23.9724    0.0000 C   0  0
   25.0760  -22.3375    0.0000 N   0  0
   25.7855  -22.7386    0.0000 C   0  0
   25.7885  -23.5564    0.0000 C   0  0
   26.4971  -23.9610    0.0000 C   0  0
   27.2032  -23.5489    0.0000 C   0  0
   27.1963  -22.7280    0.0000 C   0  0
   26.4872  -22.3271    0.0000 C   0  0
   20.8534  -27.2788    0.0000 N   0  0
   20.1915  -27.7580    0.0000 N   0  0
   20.4426  -28.5357    0.0000 N   0  0
   21.2599  -28.5371    0.0000 C   0  0
   21.5136  -27.7603    0.0000 C   0  0
  2  1  1  0
  3  2  1  0
  4  5  2  0
  5  6  1  0
  6  9  2  0
  8  7  2  0
  7  4  1  0
  8  9  1  0
  8 10  1  0
 10 11  2  0
 10 12  1  0
 12 13  1  0
 12 16  1  0
 13 14  1  0
 14  2  1  0
  2 15  1  0
 15 16  1  0
 14 17  1  1
 17 18  1  0
 18 19  2  0
 19 20  1  0
 20 23  2  0
 22 21  2  0
 21 18  1  0
 22 23  1  0
 23 24  1  0
 24 25  2  0
 25 26  1  0
 26 27  2  0
 27 22  1  0
 28 29  1  0
 29 30  2  0
 30 31  1  0
 31 32  2  0
 32 28  1  0
  6 28  1  0
M  END
> <chembl_id>
CHEMBL3925396

$$$$

  SciTegic12241705072D

 28 31  0  0  0  0            999 V2000
   17.1940   -0.7058    0.0000 F   0  0
   17.6068   -1.4156    0.0000 C   0  0
   18.0152   -0.7033    0.0000 F   0  0
   15.5046   -4.2923    0.0000 C   0  0
   15.5034   -5.1118    0.0000 C   0  0
   16.2115   -5.5208    0.0000 C   0  0
   16.2097   -3.8834    0.0000 C   0  0
   16.9183   -4.2887    0.0000 C   0  0
   16.9217   -5.1139    0.0000 C   0  0
   17.6273   -3.8709    0.0000 C   0  0
   18.3386   -4.2732    0.0000 O   0  0
   17.6200   -3.0537    0.0000 N   0  0
   18.3245   -2.6368    0.0000 C   0  0
   18.3192   -1.8232    0.0000 C   0  0
   16.9038   -1.8307    0.0000 C   0  0
   16.9075   -2.6505    0.0000 C   0  0
   19.0247   -1.4108    0.0000 O   0  0
   19.7346   -1.8157    0.0000 C   0  0
   19.7338   -2.6301    0.0000 C   0  0
   20.4428   -3.0349    0.0000 C   0  0
   20.4328   -1.4001    0.0000 N   0  0
   21.1424   -1.8012    0.0000 C   0  0
   21.1453   -2.6190    0.0000 C   0  0
   21.8540   -3.0236    0.0000 C   0  0
   22.5601   -2.6115    0.0000 C   0  0
   22.5532   -1.7905    0.0000 C   0  0
   21.8440   -1.3896    0.0000 C   0  0
   14.7954   -5.5199    0.0000 F   0  0
  2  1  1  0
  3  2  1  0
  4  5  2  0
  5  6  1  0
  6  9  2  0
  8  7  2  0
  7  4  1  0
  8  9  1  0
  8 10  1  0
 10 11  2  0
 10 12  1  0
 12 13  1  0
 12 16  1  0
 13 14  1  0
 14  2  1  0
  2 15  1  0
 15 16  1  0
 14 17  1  0
 17 18  1  0
 18 19  2  0
 19 20  1  0
 20 23  2  0
 22 21  2  0
 21 18  1  0
 22 23  1  0
 23 24  1  0
 24 25  2  0
 25 26  1  0
 26 27  2  0
 27 22  1  0
  5 28  1  0
M  END
> <chembl_id>
CHEMBL3979157

$$$$

  SciTegic12201716082D

 32 35  0  0  0  0            999 V2000
   10.0566   -3.4916    0.0000 C   0  0
   10.0555   -4.3111    0.0000 N   0  0
   10.7635   -4.7201    0.0000 C   0  0
   11.4732   -4.3107    0.0000 C   0  0
   11.4704   -3.4880    0.0000 C   0  0
   10.7617   -3.0827    0.0000 C   0  0
   10.7652   -5.5351    0.0000 C   0  0
   10.0558   -5.9429    0.0000 C   0  0
   10.0552   -6.7594    0.0000 C   0  0
   10.7634   -7.1690    0.0000 C   0  0
   11.4735   -6.7561    0.0000 C   0  0
   11.4706   -5.9411    0.0000 N   0  0
   12.1815   -4.7181    0.0000 C   0  0
   12.1828   -5.5353    0.0000 O   0  0
   12.8886   -4.3084    0.0000 N   0  0
   13.5976   -4.7176    0.0000 C   0  0
   10.7593   -2.2655    0.0000 C   0  0
   13.5924   -5.5371    0.0000 C   0  0
   14.3006   -5.9462    0.0000 C   0  0
   15.0104   -5.5367    0.0000 C   0  0
   15.0076   -4.7139    0.0000 C   0  0
   14.2989   -4.3085    0.0000 N   0  0
   15.7115   -4.3044    0.0000 O   0  0
   15.7085   -3.4872    0.0000 C   0  0
   15.7160   -5.9445    0.0000 O   0  0
   16.4231   -5.5348    0.0000 C   0  0
   11.4646   -1.8583    0.0000 C   0  0
   11.4625   -1.0419    0.0000 C   0  0
   10.7531   -0.6346    0.0000 C   0  0
   10.0442   -1.0497    0.0000 N   0  0
   10.0498   -1.8647    0.0000 C   0  0
   12.1692   -0.6315    0.0000 Cl  0  0
  1  2  2  0
  2  3  1  0
  3  4  2  0
  4  5  1  0
  5  6  2  0
  6  1  1  0
  7  8  2  0
  8  9  1  0
  9 10  2  0
 10 11  1  0
 11 12  2  0
 12  7  1  0
  3  7  1  0
  4 13  1  0
 13 14  2  0
 13 15  1  0
 15 16  1  0
  6 17  1  0
 16 18  2  0
 18 19  1  0
 19 20  2  0
 20 21  1  0
 21 22  2  0
 22 16  1  0
 23 24  1  0
 21 23  1  0
 25 26  1  0
 20 25  1  0
 17 27  2  0
 27 28  1  0
 28 29  2  0
 29 30  1  0
 30 31  2  0
 31 17  1  0
 28 32  1  0
M  END
> <chembl_id>
CHEMBL3891586

$$$$

  SciTegic12221714222D

 32 35  0  0  0  0            999 V2000
    9.8145  -22.6709    0.0000 F   0  0
   10.2273  -23.3808    0.0000 C   0  0
   10.6357  -22.6684    0.0000 F   0  0
    8.1251  -26.2574    0.0000 C   0  0
    8.1240  -27.0769    0.0000 C   0  0
    8.8320  -27.4859    0.0000 C   0  0
    8.8302  -25.8485    0.0000 C   0  0
    9.5388  -26.2538    0.0000 C   0  0
    9.5422  -27.0790    0.0000 C   0  0
   10.2478  -25.8360    0.0000 C   0  0
   10.9682  -27.0731    0.0000 N   0  0
   10.2526  -27.4863    0.0000 N   0  0
   10.4243  -28.2946    0.0000 N   0  0
   11.2462  -28.3810    0.0000 C   0  0
   11.5822  -27.6261    0.0000 C   0  0
   10.9591  -26.2383    0.0000 O   0  0
   10.2405  -25.0188    0.0000 N   0  0
   10.9450  -24.6019    0.0000 C   0  0
   10.9397  -23.7883    0.0000 C   0  0
    9.5243  -23.7958    0.0000 C   0  0
    9.5280  -24.6156    0.0000 C   0  0
   11.6453  -23.3760    0.0000 O   0  0
   12.3551  -23.7808    0.0000 C   0  0
   12.3543  -24.5952    0.0000 C   0  0
   13.0633  -25.0000    0.0000 C   0  0
   13.7699  -24.5877    0.0000 C   0  0
   13.7629  -23.7663    0.0000 C   0  0
   13.0533  -23.3652    0.0000 N   0  0
   13.0677  -25.8188    0.0000 C   0  0
   13.0713  -26.5623    0.0000 F   0  0
   12.4084  -26.3615    0.0000 F   0  0
   13.7323  -26.3551    0.0000 F   0  0
  2  1  1  0
  3  2  1  0
  4  5  2  0
  5  6  1  0
  6  9  2  0
  8  7  2  0
  7  4  1  0
  8  9  1  0
  8 10  1  0
  9 12  1  0
 11 12  1  0
 12 13  1  0
 13 14  2  0
 14 15  1  0
 15 11  2  0
 10 16  2  0
 10 17  1  0
 17 18  1  0
 17 21  1  0
 18 19  1  0
 19  2  1  0
  2 20  1  0
 20 21  1  0
 19 22  1  0
 22 23  1  0
 23 24  2  0
 24 25  1  0
 25 26  2  0
 26 27  1  0
 27 28  2  0
 28 23  1  0
 29 30  1  0
 29 31  1  0
 29 32  1  0
 25 29  1  0
M  END
> <chembl_id>
CHEMBL3959896

$$$$
