
  SciTegic04091416462D

 29 31  0  0  0  0            999 V2000
   17.0993  -18.8497    0.0000 C   0  0
   16.3794  -18.4454    0.0000 C   0  0
   15.6720  -18.8698    0.0000 C   0  0
   15.6858  -19.6966    0.0000 C   0  0
   16.4131  -20.0968    0.0000 C   0  0
   17.1177  -19.6701    0.0000 C   0  0
   17.7945  -17.6016    0.0000 N   0  0
   18.4996  -17.1823    0.0000 C   0  0
   18.4888  -16.3629    0.0000 C   0  0
   17.7714  -15.9587    0.0000 C   0  0
   17.0635  -16.3799    0.0000 C   0  0
   17.0727  -17.2056    0.0000 C   0  0
   19.1815  -17.5121    0.0000 C   0  0
   19.1977  -18.3403    0.0000 C   0  0
   19.9219  -18.7385    0.0000 C   0  0
   20.6301  -18.3097    0.0000 C   0  0
   20.6098  -17.4785    0.0000 C   0  0
   19.8854  -17.0841    0.0000 C   0  0
   19.8656  -16.2584    0.0000 O   0  0
   20.5706  -15.8284    0.0000 C   0  0
   16.3642  -17.6304    0.0000 O   0  0
   18.4910  -18.7676    0.0000 O   0  0
   17.7675  -18.3692    0.0000 C   0  0
   18.5077  -19.5934    0.0000 C   0  0
   16.4303  -20.9226    0.0000 O   0  0
   15.7238  -21.3503    0.0000 C   0  0
   15.7411  -22.1759    0.0000 F   0  0
   15.0001  -20.9524    0.0000 F   0  0
   15.0036  -21.7569    0.0000 F   0  0
  7 23  1  0
 23  1  1  0
  1  2  2  0
  2  3  1  0
  3  4  2  0
  4  5  1  0
  5  6  2  0
  6  1  1  0
  7  8  1  0
  7 12  1  0
  8  9  1  0
  9 10  1  0
 10 11  1  0
 11 12  1  0
  8 13  1  0
 13 14  2  0
 14 15  1  0
 15 16  2  0
 16 17  1  0
 17 18  2  0
 18 13  1  0
 18 19  1  0
 19 20  1  0
 12 21  2  0
 14 22  1  0
 22 24  1  0
  5 25  1  0
 25 26  1  0
 26 27  1  0
 26 28  1  0
 26 29  1  0
M  END
> <chembl_id>
CHEMBL3113545

$$$$

  SciTegic04091416462D

 29 32  0  0  0  0            999 V2000
   23.4634  -22.5628    0.0000 C   0  0
   22.7558  -22.9878    0.0000 C   0  0
   22.0365  -22.5837    0.0000 C   0  0
   21.3296  -23.0080    0.0000 C   0  0
   22.7742  -23.8074    0.0000 C   0  0
   23.4505  -21.7405    0.0000 N   0  0
   24.1551  -21.3215    0.0000 C   0  0
   24.1443  -20.5028    0.0000 C   0  0
   23.4275  -20.0989    0.0000 C   0  0
   22.7200  -20.5199    0.0000 C   0  0
   22.7291  -21.3448    0.0000 C   0  0
   24.8366  -21.6511    0.0000 C   0  0
   24.8528  -22.4787    0.0000 C   0  0
   25.5763  -22.8766    0.0000 C   0  0
   26.2843  -22.4482    0.0000 C   0  0
   26.2640  -21.6175    0.0000 C   0  0
   25.5399  -21.2233    0.0000 C   0  0
   25.5201  -20.3983    0.0000 O   0  0
   26.2247  -19.9686    0.0000 C   0  0
   24.1466  -22.9057    0.0000 O   0  0
   24.1632  -23.7308    0.0000 C   0  0
   22.0213  -21.7693    0.0000 O   0  0
   22.0702  -24.2340    0.0000 C   0  0
   21.3454  -23.8345    0.0000 N   0  0
   22.0870  -25.0591    0.0000 C   0  0
   21.4319  -25.5615    0.0000 N   0  0
   21.7030  -26.3410    0.0000 C   0  0
   22.5282  -26.3241    0.0000 C   0  0
   22.7669  -25.5341    0.0000 S   0  0
  6  1  1  0
  1  2  1  0
  2  3  2  0
  3  4  1  0
  4 24  2  0
 23  5  2  0
  5  2  1  0
  6  7  1  0
  6 11  1  0
  7  8  1  0
  8  9  1  0
  9 10  1  0
 10 11  1  0
  7 12  1  0
 12 13  2  0
 13 14  1  0
 14 15  2  0
 15 16  1  0
 16 17  2  0
 17 12  1  0
 17 18  1  0
 18 19  1  0
 13 20  1  0
 20 21  1  0
 11 22  2  0
 23 24  1  0
 23 25  1  0
 25 26  2  0
 26 27  1  0
 27 28  2  0
 28 29  1  0
 29 25  1  0
M  END
> <chembl_id>
CHEMBL3113749

$$$$

  SciTegic04091416462D

 30 32  0  0  0  0            999 V2000
   22.5919  -26.4385    0.0000 C   0  0
   22.5066  -25.6179    0.0000 C   0  0
   21.8386  -26.1021    0.0000 C   0  0
   24.3897  -27.6220    0.0000 C   0  0
   24.4058  -28.4493    0.0000 C   0  0
   25.1292  -28.8470    0.0000 C   0  0
   25.8368  -28.4187    0.0000 C   0  0
   25.8165  -27.5884    0.0000 C   0  0
   25.0926  -27.1944    0.0000 C   0  0
   23.6665  -27.2249    0.0000 C   0  0
   23.4169  -26.4393    0.0000 C   0  0
   22.3362  -27.2229    0.0000 C   0  0
   23.0027  -27.7085    0.0000 N   0  0
   21.5513  -27.4771    0.0000 O   0  0
   25.0728  -26.3696    0.0000 O   0  0
   25.7772  -25.9401    0.0000 C   0  0
   23.6999  -28.8761    0.0000 O   0  0
   23.7165  -29.7009    0.0000 C   0  0
   23.0169  -28.5334    0.0000 C   0  0
   22.3097  -28.9582    0.0000 C   0  0
   21.5907  -28.5542    0.0000 C   0  0
   20.8839  -28.9783    0.0000 C   0  0
   20.8978  -29.8041    0.0000 C   0  0
   21.6242  -30.2038    0.0000 C   0  0
   22.3281  -29.7774    0.0000 C   0  0
   20.1911  -30.2298    0.0000 O   0  0
   19.4691  -29.8306    0.0000 C   0  0
   19.4537  -29.0058    0.0000 F   0  0
   18.7625  -30.2563    0.0000 F   0  0
   18.7498  -29.4163    0.0000 F   0  0
  2  1  1  0
  1  3  1  0
  4  5  2  0
  5  6  1  0
  6  7  2  0
  7  8  1  0
  8  9  2  0
  9  4  1  0
  4 10  1  0
 10 11  1  0
 11  1  1  0
  1 12  1  0
 12 13  1  0
 13 10  1  0
 12 14  2  0
  9 15  1  0
 15 16  1  0
  5 17  1  0
 17 18  1  0
 13 19  1  0
 19 20  1  0
 20 21  2  0
 21 22  1  0
 22 23  2  0
 23 24  1  0
 24 25  2  0
 25 20  1  0
 23 26  1  0
 26 27  1  0
 27 28  1  0
 27 29  1  0
 27 30  1  0
M  END
> <chembl_id>
CHEMBL3113766

$$$$

  SciTegic04091416462D

 28 31  0  0  0  0            999 V2000
   10.3321   -8.5815    0.0000 C   0  0
    9.6247   -9.0064    0.0000 C   0  0
    8.9055   -8.6024    0.0000 C   0  0
    8.1986   -9.0265    0.0000 C   0  0
    9.6430   -9.8260    0.0000 N   0  0
   10.3193   -7.7593    0.0000 N   0  0
   11.0238   -7.3403    0.0000 C   0  0
   11.0130   -6.5217    0.0000 C   0  0
   10.2963   -6.1178    0.0000 C   0  0
    9.5888   -6.5388    0.0000 C   0  0
    9.5980   -7.3637    0.0000 C   0  0
   11.7051   -7.6699    0.0000 C   0  0
   11.7214   -8.4974    0.0000 C   0  0
   12.4448   -8.8952    0.0000 C   0  0
   13.1526   -8.4668    0.0000 C   0  0
   13.1323   -7.6363    0.0000 C   0  0
   12.4083   -7.2422    0.0000 C   0  0
   12.3885   -6.4173    0.0000 O   0  0
   13.0931   -5.9876    0.0000 C   0  0
   11.0152   -8.9243    0.0000 O   0  0
   11.0318   -9.7493    0.0000 C   0  0
    8.8902   -7.7881    0.0000 O   0  0
    8.9390  -10.2524    0.0000 C   0  0
    8.2146   -9.8529    0.0000 C   0  0
    7.5084  -10.2807    0.0000 C   0  0
    7.5256  -11.1076    0.0000 C   0  0
    8.2549  -11.5052    0.0000 C   0  0
    8.9580  -11.0751    0.0000 C   0  0
  6  1  1  0
  1  2  1  0
  2  3  2  0
  3  4  1  0
  4 24  2  0
 23  5  2  0
  5  2  1  0
  6  7  1  0
  6 11  1  0
  7  8  1  0
  8  9  1  0
  9 10  1  0
 10 11  1  0
  7 12  1  0
 12 13  2  0
 13 14  1  0
 14 15  2  0
 15 16  1  0
 16 17  2  0
 17 12  1  0
 17 18  1  0
 18 19  1  0
 13 20  1  0
 20 21  1  0
 11 22  2  0
 23 24  1  0
 24 25  1  0
 25 26  2  0
 26 27  1  0
 27 28  2  0
 28 23  1  0
M  END
> <chembl_id>
CHEMBL3112601

$$$$

  SciTegic04091416462D

 32 35  0  0  0  0            999 V2000
    6.8799   -3.5278    0.0000 C   0  0
    6.8962   -4.3553    0.0000 C   0  0
    7.6197   -4.7532    0.0000 C   0  0
    8.3277   -4.3248    0.0000 C   0  0
    8.3074   -3.4941    0.0000 C   0  0
    7.5832   -3.1000    0.0000 C   0  0
    6.1566   -3.1305    0.0000 C   0  0
    4.8257   -3.1285    0.0000 C   0  0
    5.4924   -3.6143    0.0000 N   0  0
    4.0405   -3.3828    0.0000 O   0  0
    7.5635   -2.2750    0.0000 O   0  0
    8.2681   -1.8452    0.0000 C   0  0
    6.1900   -4.7823    0.0000 O   0  0
    6.2066   -5.6074    0.0000 C   0  0
    5.5067   -4.4394    0.0000 C   0  0
    4.7992   -4.8644    0.0000 C   0  0
    4.0799   -4.4603    0.0000 C   0  0
    3.3730   -4.8846    0.0000 C   0  0
    3.3868   -5.7106    0.0000 C   0  0
    4.1135   -6.1107    0.0000 C   0  0
    4.8176   -5.6841    0.0000 C   0  0
    2.6798   -6.1365    0.0000 O   0  0
    1.9575   -5.7373    0.0000 C   0  0
    1.9422   -4.9121    0.0000 F   0  0
    1.2506   -6.1632    0.0000 F   0  0
    1.2380   -5.3228    0.0000 F   0  0
    5.0816   -2.3437    0.0000 C   0  0
    5.9029   -2.3477    0.0000 C   0  0
    6.3153   -1.6394    0.0000 C   0  0
    5.9073   -0.9267    0.0000 C   0  0
    5.0828   -0.9268    0.0000 C   0  0
    4.6741   -1.6357    0.0000 C   0  0
  1  2  2  0
  2  3  1  0
  3  4  2  0
  4  5  1  0
  5  6  2  0
  6  1  1  0
  1  7  1  0
  7 28  1  0
 27  8  1  0
  8  9  1  0
  9  7  1  0
  8 10  2  0
  6 11  1  0
 11 12  1  0
  2 13  1  0
 13 14  1  0
  9 15  1  0
 15 16  1  0
 16 17  2  0
 17 18  1  0
 18 19  2  0
 19 20  1  0
 20 21  2  0
 21 16  1  0
 19 22  1  0
 22 23  1  0
 23 24  1  0
 23 25  1  0
 23 26  1  0
 27 28  2  0
 28 29  1  0
 29 30  2  0
 30 31  1  0
 31 32  2  0
 32 27  1  0
M  END
> <chembl_id>
CHEMBL3113768

$$$$

  SciTegic04091416462D

 32 36  0  0  0  0            999 V2000
   29.8435   -7.8031    0.0000 C   0  0
   29.1356   -8.2283    0.0000 C   0  0
   28.4160   -7.8239    0.0000 C   0  0
   27.7086   -8.2484    0.0000 C   0  0
   29.1540   -9.0482    0.0000 C   0  0
   29.8307   -6.9804    0.0000 N   0  0
   30.5356   -6.5611    0.0000 C   0  0
   30.5248   -5.7420    0.0000 C   0  0
   29.8077   -5.3378    0.0000 C   0  0
   29.0998   -5.7590    0.0000 C   0  0
   29.1090   -6.5845    0.0000 C   0  0
   31.2175   -6.8909    0.0000 C   0  0
   31.2336   -7.7188    0.0000 C   0  0
   31.9576   -8.1170    0.0000 C   0  0
   32.6658   -7.6883    0.0000 C   0  0
   30.5270   -8.1460    0.0000 O   0  0
   30.5437   -8.9717    0.0000 C   0  0
   28.4007   -7.0092    0.0000 O   0  0
   28.4496   -9.4751    0.0000 C   0  0
   27.7245   -9.0753    0.0000 C   0  0
   28.4665  -10.3006    0.0000 C   0  0
   27.7612  -10.7244    0.0000 C   0  0
   27.7778  -11.5491    0.0000 C   0  0
   28.5017  -11.9481    0.0000 C   0  0
   29.2105  -11.5163    0.0000 C   0  0
   29.1905  -10.6929    0.0000 C   0  0
   31.9211   -6.4629    0.0000 C   0  0
   32.6460   -6.8561    0.0000 C   0  0
   33.2440   -6.2881    0.0000 N   0  0
   32.8886   -5.5438    0.0000 C   0  0
   32.0711   -5.6519    0.0000 O   0  0
   33.2822   -4.8179    0.0000 C   0  0
  6  1  1  0
  1  2  1  0
  2  3  2  0
  3  4  1  0
  4 20  2  0
 19  5  2  0
  5  2  1  0
  6  7  1  0
  6 11  1  0
  7  8  1  0
  8  9  1  0
  9 10  1  0
 10 11  1  0
  7 12  1  0
 12 13  2  0
 13 14  1  0
 14 15  2  0
 15 28  1  0
 27 12  1  0
 13 16  1  0
 16 17  1  0
 11 18  2  0
 19 20  1  0
 19 21  1  0
 21 22  2  0
 22 23  1  0
 23 24  2  0
 24 25  1  0
 25 26  2  0
 26 21  1  0
 27 28  2  0
 28 29  1  0
 29 30  2  0
 30 31  1  0
 31 27  1  0
 30 32  1  0
M  END
> <chembl_id>
CHEMBL3113754

$$$$

  SciTegic04091416462D

 28 31  0  0  0  0            999 V2000
    3.9850  -14.4838    0.0000 C   0  0
    3.2776  -14.9086    0.0000 C   0  0
    2.5584  -14.5046    0.0000 C   0  0
    1.8514  -14.9288    0.0000 C   0  0
    3.2960  -15.7282    0.0000 C   0  0
    3.9723  -13.6615    0.0000 N   0  0
    4.6767  -13.2426    0.0000 C   0  0
    4.6659  -12.4239    0.0000 C   0  0
    3.9492  -12.0200    0.0000 C   0  0
    3.2416  -12.4410    0.0000 C   0  0
    3.2509  -13.2659    0.0000 C   0  0
    5.3582  -13.5721    0.0000 C   0  0
    5.3743  -14.3996    0.0000 C   0  0
    6.0979  -14.7975    0.0000 C   0  0
    6.8057  -14.3691    0.0000 C   0  0
    6.7854  -13.5386    0.0000 C   0  0
    6.0613  -13.1444    0.0000 C   0  0
    6.0416  -12.3194    0.0000 O   0  0
    6.7462  -11.8898    0.0000 C   0  0
    4.6681  -14.8265    0.0000 O   0  0
    4.6848  -15.6516    0.0000 C   0  0
    2.5431  -13.6903    0.0000 O   0  0
    2.5915  -16.1546    0.0000 C   0  0
    1.8673  -15.7553    0.0000 C   0  0
    1.2637  -16.3207    0.0000 S   0  0
    1.6150  -17.0694    0.0000 C   0  0
    2.4356  -16.9667    0.0000 N   0  0
    1.2166  -17.7922    0.0000 C   0  0
  6  1  1  0
  1  2  1  0
  2  3  2  0
  3  4  1  0
  4 24  2  0
 23  5  2  0
  5  2  1  0
  6  7  1  0
  6 11  1  0
  7  8  1  0
  8  9  1  0
  9 10  1  0
 10 11  1  0
  7 12  1  0
 12 13  2  0
 13 14  1  0
 14 15  2  0
 15 16  1  0
 16 17  2  0
 17 12  1  0
 17 18  1  0
 18 19  1  0
 13 20  1  0
 20 21  1  0
 11 22  2  0
 23 24  1  0
 24 25  1  0
 25 26  1  0
 26 27  2  0
 27 23  1  0
 26 28  1  0
M  END
> <chembl_id>
CHEMBL3113741

$$$$

  SciTegic04091416462D

 30 33  0  0  0  0            999 V2000
   18.3323  -14.9517    0.0000 C   0  0
   17.6248  -15.3767    0.0000 C   0  0
   16.9055  -14.9726    0.0000 C   0  0
   16.1984  -15.3968    0.0000 C   0  0
   17.6431  -16.1963    0.0000 N   0  0
   18.3195  -14.1294    0.0000 N   0  0
   19.0240  -13.7104    0.0000 C   0  0
   19.0132  -12.8916    0.0000 C   0  0
   18.2965  -12.4877    0.0000 C   0  0
   17.5889  -12.9087    0.0000 C   0  0
   17.5981  -13.7337    0.0000 C   0  0
   19.7055  -14.0400    0.0000 C   0  0
   19.7217  -14.8676    0.0000 C   0  0
   20.4453  -15.2655    0.0000 C   0  0
   21.1531  -14.8370    0.0000 C   0  0
   21.1328  -14.0064    0.0000 C   0  0
   20.4088  -13.6122    0.0000 C   0  0
   20.3890  -12.7872    0.0000 O   0  0
   21.0937  -12.3575    0.0000 C   0  0
   19.0154  -15.2946    0.0000 O   0  0
   19.0321  -16.1197    0.0000 C   0  0
   16.8902  -14.1582    0.0000 O   0  0
   16.9391  -16.6228    0.0000 C   0  0
   16.2144  -16.2233    0.0000 C   0  0
   16.9560  -17.4480    0.0000 C   0  0
   16.2511  -17.8715    0.0000 C   0  0
   16.2676  -18.6959    0.0000 C   0  0
   16.9911  -19.0946    0.0000 C   0  0
   17.6996  -18.6630    0.0000 C   0  0
   17.6796  -17.8400    0.0000 C   0  0
  6  1  1  0
  1  2  1  0
  2  3  2  0
  3  4  1  0
  4 24  2  0
 23  5  2  0
  5  2  1  0
  6  7  1  0
  6 11  1  0
  7  8  1  0
  8  9  1  0
  9 10  1  0
 10 11  1  0
  7 12  1  0
 12 13  2  0
 13 14  1  0
 14 15  2  0
 15 16  1  0
 16 17  2  0
 17 12  1  0
 17 18  1  0
 18 19  1  0
 13 20  1  0
 20 21  1  0
 11 22  2  0
 23 24  1  0
 23 25  1  0
 25 26  2  0
 26 27  1  0
 27 28  2  0
 28 29  1  0
 29 30  2  0
 30 25  1  0
M  END
> <chembl_id>
CHEMBL3113743

$$$$

  SciTegic04091416462D

 30 32  0  0  0  0            999 V2000
    9.9565  -19.2494    0.0000 C   0  0
    9.2490  -19.6744    0.0000 C   0  0
    8.5299  -19.2703    0.0000 C   0  0
    7.8229  -19.6945    0.0000 C   0  0
    7.8368  -20.5203    0.0000 C   0  0
    8.5636  -20.9202    0.0000 C   0  0
    9.2673  -20.4938    0.0000 C   0  0
    7.1302  -20.9462    0.0000 O   0  0
    6.4079  -20.5469    0.0000 C   0  0
    6.3926  -19.7220    0.0000 F   0  0
    5.7010  -20.9728    0.0000 F   0  0
    5.6884  -20.1325    0.0000 F   0  0
    9.9436  -18.4274    0.0000 N   0  0
   10.6479  -18.0084    0.0000 C   0  0
   10.6371  -17.1897    0.0000 C   0  0
    9.9206  -16.7860    0.0000 C   0  0
    9.2131  -17.2068    0.0000 C   0  0
    9.2223  -18.0318    0.0000 C   0  0
   11.3294  -18.3380    0.0000 C   0  0
   11.3455  -19.1653    0.0000 C   0  0
   12.0689  -19.5632    0.0000 C   0  0
   12.7767  -19.1347    0.0000 C   0  0
   12.7564  -18.3044    0.0000 C   0  0
   12.0326  -17.9103    0.0000 C   0  0
   12.0128  -17.0853    0.0000 O   0  0
   12.7172  -16.6558    0.0000 C   0  0
    8.5147  -18.4562    0.0000 O   0  0
   10.6776  -19.6502    0.0000 C   0  0
   11.3394  -19.9868    0.0000 O   0  0
   10.6217  -20.3939    0.0000 C   0  0
 13  1  1  0
  1  2  1  0
  2  3  2  0
  3  4  1  0
  4  5  2  0
  5  6  1  0
  6  7  2  0
  7  2  1  0
  5  8  1  0
  8  9  1  0
  9 10  1  0
  9 11  1  0
  9 12  1  0
 13 14  1  0
 13 18  1  0
 14 15  1  0
 15 16  1  0
 16 17  1  0
 17 18  1  0
 14 19  1  0
 19 20  2  0
 20 21  1  0
 21 22  2  0
 22 23  1  0
 23 24  2  0
 24 19  1  0
 24 25  1  0
 25 26  1  0
 18 27  2  0
  1 28  1  0
 20 29  1  0
 29 30  1  0
M  END
> <chembl_id>
CHEMBL3113544

$$$$

  SciTegic04091416462D

 31 34  0  0  0  0            999 V2000
    3.4631  -25.3148    0.0000 C   0  0
    2.7434  -24.9105    0.0000 C   0  0
    2.0360  -25.3350    0.0000 C   0  0
    2.0498  -26.1615    0.0000 C   0  0
    2.7771  -26.5616    0.0000 C   0  0
    3.4815  -26.1349    0.0000 C   0  0
    4.1581  -24.0668    0.0000 N   0  0
    4.8631  -23.6475    0.0000 C   0  0
    4.8522  -22.8284    0.0000 C   0  0
    4.1352  -22.4242    0.0000 C   0  0
    3.4271  -22.8456    0.0000 C   0  0
    3.4364  -23.6710    0.0000 C   0  0
    5.5450  -23.9774    0.0000 C   0  0
    5.5612  -24.8054    0.0000 C   0  0
    6.2851  -25.2035    0.0000 C   0  0
    6.9933  -24.7748    0.0000 C   0  0
    6.9730  -23.9437    0.0000 C   0  0
    6.2486  -23.5493    0.0000 C   0  0
    6.2289  -22.7238    0.0000 O   0  0
    6.9338  -22.2939    0.0000 C   0  0
    2.7282  -24.0956    0.0000 O   0  0
    4.8545  -25.2326    0.0000 O   0  0
    4.1312  -24.8343    0.0000 C   0  0
    4.8711  -26.0582    0.0000 C   0  0
    2.7942  -27.3872    0.0000 O   0  0
    2.0878  -27.8148    0.0000 C   0  0
    1.3679  -27.4128    0.0000 C   0  0
    0.6619  -27.8397    0.0000 C   0  0
    0.6787  -28.6661    0.0000 C   0  0
    1.4073  -29.0637    0.0000 C   0  0
    2.1102  -28.6345    0.0000 C   0  0
  7 23  1  0
 23  1  1  0
  1  2  2  0
  2  3  1  0
  3  4  2  0
  4  5  1  0
  5  6  2  0
  6  1  1  0
  7  8  1  0
  7 12  1  0
  8  9  1  0
  9 10  1  0
 10 11  1  0
 11 12  1  0
  8 13  1  0
 13 14  2  0
 14 15  1  0
 15 16  2  0
 16 17  1  0
 17 18  2  0
 18 13  1  0
 18 19  1  0
 19 20  1  0
 12 21  2  0
 14 22  1  0
 22 24  1  0
  5 25  1  0
 25 26  1  0
 26 27  2  0
 27 28  1  0
 28 29  2  0
 29 30  1  0
 30 31  2  0
 31 26  1  0
M  END
> <chembl_id>
CHEMBL3113548

$$$$

  SciTegic04091416462D

 29 31  0  0  0  0            999 V2000
    6.1431  -15.4821    0.0000 C   0  0
    5.4359  -15.9070    0.0000 C   0  0
    4.7167  -15.5029    0.0000 C   0  0
    4.0097  -15.9271    0.0000 C   0  0
    4.0236  -16.7530    0.0000 C   0  0
    4.7503  -17.1529    0.0000 C   0  0
    5.4543  -16.7263    0.0000 C   0  0
    3.3170  -17.1788    0.0000 O   0  0
    2.5947  -16.7795    0.0000 C   0  0
    2.5793  -15.9547    0.0000 F   0  0
    1.8880  -17.2054    0.0000 F   0  0
    1.8754  -16.3653    0.0000 F   0  0
    6.1304  -14.6600    0.0000 N   0  0
    6.8349  -14.2410    0.0000 C   0  0
    6.8241  -13.4224    0.0000 C   0  0
    6.1074  -13.0186    0.0000 O   0  0
    5.4000  -13.4394    0.0000 C   0  0
    5.4093  -14.2644    0.0000 C   0  0
    7.5161  -14.5707    0.0000 C   0  0
    7.5323  -15.3978    0.0000 C   0  0
    8.2558  -15.7958    0.0000 C   0  0
    8.9635  -15.3673    0.0000 C   0  0
    8.9432  -14.5370    0.0000 C   0  0
    8.2193  -14.1429    0.0000 C   0  0
    8.1996  -13.3180    0.0000 O   0  0
    8.9040  -12.8884    0.0000 C   0  0
    6.8263  -15.8249    0.0000 O   0  0
    6.8430  -16.6497    0.0000 C   0  0
    4.7015  -14.6888    0.0000 O   0  0
 13  1  1  0
  1  2  1  0
  2  3  2  0
  3  4  1  0
  4  5  2  0
  5  6  1  0
  6  7  2  0
  7  2  1  0
  5  8  1  0
  8  9  1  0
  9 10  1  0
  9 11  1  0
  9 12  1  0
 13 14  1  0
 13 18  1  0
 14 15  1  0
 15 16  1  0
 16 17  1  0
 17 18  1  0
 14 19  1  0
 19 20  2  0
 20 21  1  0
 21 22  2  0
 22 23  1  0
 23 24  2  0
 24 19  1  0
 24 25  1  0
 25 26  1  0
 20 27  1  0
 27 28  1  0
 18 29  2  0
M  END
> <chembl_id>
CHEMBL3113756

$$$$

  SciTegic04091416462D

 30 32  0  0  0  0            999 V2000
   30.6493  -17.3109    0.0000 C   0  0
   29.9418  -17.7359    0.0000 C   0  0
   29.2226  -17.3318    0.0000 C   0  0
   28.5155  -17.7560    0.0000 C   0  0
   28.5294  -18.5821    0.0000 C   0  0
   29.2562  -18.9820    0.0000 C   0  0
   29.9602  -18.5555    0.0000 C   0  0
   27.8224  -19.0080    0.0000 O   0  0
   27.1001  -18.6087    0.0000 C   0  0
   27.0848  -17.7835    0.0000 F   0  0
   26.3933  -19.0346    0.0000 F   0  0
   26.3805  -18.1943    0.0000 F   0  0
   30.6365  -16.4886    0.0000 N   0  0
   31.3411  -16.0696    0.0000 C   0  0
   31.3303  -15.2508    0.0000 C   0  0
   30.6134  -14.8469    0.0000 C   0  0
   29.9059  -15.2680    0.0000 C   0  0
   29.9151  -16.0929    0.0000 C   0  0
   32.0226  -16.3992    0.0000 C   0  0
   32.0388  -17.2267    0.0000 C   0  0
   32.7624  -17.6247    0.0000 C   0  0
   33.4702  -17.1961    0.0000 C   0  0
   33.4499  -16.3656    0.0000 C   0  0
   32.7258  -15.9714    0.0000 C   0  0
   32.7060  -15.1464    0.0000 O   0  0
   33.4106  -14.7167    0.0000 C   0  0
   31.3325  -17.6537    0.0000 O   0  0
   31.3492  -18.4789    0.0000 C   0  0
   29.2073  -16.5174    0.0000 O   0  0
   29.1862  -14.8640    0.0000 C   0  0
 13  1  1  0
  1  2  1  0
  2  3  2  0
  3  4  1  0
  4  5  2  0
  5  6  1  0
  6  7  2  0
  7  2  1  0
  5  8  1  0
  8  9  1  0
  9 10  1  0
  9 11  1  0
  9 12  1  0
 13 14  1  0
 13 18  1  0
 14 15  1  0
 15 16  1  0
 16 17  1  0
 17 18  1  0
 14 19  1  0
 19 20  2  0
 20 21  1  0
 21 22  2  0
 22 23  1  0
 23 24  2  0
 24 19  1  0
 24 25  1  0
 25 26  1  0
 20 27  1  0
 27 28  1  0
 18 29  2  0
 17 30  1  0
M  END
> <chembl_id>
CHEMBL3113759

$$$$

  SciTegic04091416462D

 24 26  0  0  0  0            999 V2000
   29.6263  -14.0589    0.0000 C   0  0
   28.9189  -14.4838    0.0000 C   0  0
   28.1996  -14.0797    0.0000 C   0  0
   27.4926  -14.5039    0.0000 C   0  0
   27.5065  -15.3300    0.0000 C   0  0
   28.2333  -15.7299    0.0000 C   0  0
   28.9373  -15.3033    0.0000 C   0  0
   29.6136  -13.2366    0.0000 N   0  0
   30.3180  -12.8176    0.0000 C   0  0
   30.3072  -11.9989    0.0000 C   0  0
   29.5905  -11.5950    0.0000 C   0  0
   28.8830  -12.0160    0.0000 C   0  0
   28.8922  -12.8410    0.0000 C   0  0
   30.9995  -13.1473    0.0000 C   0  0
   31.0157  -13.9746    0.0000 C   0  0
   31.7392  -14.3726    0.0000 C   0  0
   32.4470  -13.9442    0.0000 C   0  0
   32.4267  -13.1136    0.0000 C   0  0
   31.7028  -12.7195    0.0000 C   0  0
   31.6830  -11.8944    0.0000 O   0  0
   32.3876  -11.4648    0.0000 C   0  0
   30.3095  -14.4016    0.0000 O   0  0
   30.3261  -15.2268    0.0000 C   0  0
   28.1844  -13.2653    0.0000 O   0  0
  8  1  1  0
  1  2  1  0
  2  3  2  0
  3  4  1  0
  4  5  2  0
  5  6  1  0
  6  7  2  0
  7  2  1  0
  8  9  1  0
  8 13  1  0
  9 10  1  0
 10 11  1  0
 11 12  1  0
 12 13  1  0
  9 14  1  0
 14 15  2  0
 15 16  1  0
 16 17  2  0
 17 18  1  0
 18 19  2  0
 19 14  1  0
 19 20  1  0
 20 21  1  0
 15 22  1  0
 22 23  1  0
 13 24  2  0
M  END
> <chembl_id>
CHEMBL3113541

$$$$

  SciTegic04091416462D

 28 31  0  0  0  0            999 V2000
   30.2140   -8.0112    0.0000 C   0  0
   29.5065   -8.4361    0.0000 C   0  0
   28.7873   -8.0320    0.0000 C   0  0
   28.0804   -8.4562    0.0000 N   0  0
   29.5249   -9.2556    0.0000 C   0  0
   30.2012   -7.1888    0.0000 N   0  0
   30.9057   -6.7700    0.0000 C   0  0
   30.8949   -5.9513    0.0000 C   0  0
   30.1782   -5.5473    0.0000 C   0  0
   29.4707   -5.9683    0.0000 C   0  0
   29.4799   -6.7933    0.0000 C   0  0
   31.5871   -7.0995    0.0000 C   0  0
   31.6034   -7.9270    0.0000 C   0  0
   32.3269   -8.3248    0.0000 C   0  0
   33.0348   -7.8965    0.0000 C   0  0
   33.0145   -7.0659    0.0000 C   0  0
   32.2904   -6.6718    0.0000 C   0  0
   32.2706   -5.8467    0.0000 O   0  0
   32.9752   -5.4171    0.0000 C   0  0
   30.8972   -8.3539    0.0000 O   0  0
   30.9139   -9.1791    0.0000 C   0  0
   28.7721   -7.2176    0.0000 O   0  0
   28.8209   -9.6822    0.0000 C   0  0
   28.0962   -9.2827    0.0000 C   0  0
   27.3901   -9.7104    0.0000 C   0  0
   27.4074  -10.5375    0.0000 C   0  0
   28.1367  -10.9349    0.0000 C   0  0
   28.8399  -10.5049    0.0000 C   0  0
  6  1  1  0
  1  2  1  0
  2  3  2  0
  3  4  1  0
  4 24  2  0
 23  5  2  0
  5  2  1  0
  6  7  1  0
  6 11  1  0
  7  8  1  0
  8  9  1  0
  9 10  1  0
 10 11  1  0
  7 12  1  0
 12 13  2  0
 13 14  1  0
 14 15  2  0
 15 16  1  0
 16 17  2  0
 17 12  1  0
 17 18  1  0
 18 19  1  0
 13 20  1  0
 20 21  1  0
 11 22  2  0
 23 24  1  0
 24 25  1  0
 25 26  2  0
 26 27  1  0
 27 28  2  0
 28 23  1  0
M  END
> <chembl_id>
CHEMBL3113739

$$$$

  SciTegic04091416462D

 28 30  0  0  0  0            999 V2000
    6.1111   -2.5516    0.0000 C   0  0
    6.1274   -3.3789    0.0000 C   0  0
    6.8507   -3.7767    0.0000 C   0  0
    7.5583   -3.3484    0.0000 C   0  0
    7.5380   -2.5181    0.0000 C   0  0
    6.8143   -2.1241    0.0000 C   0  0
    5.3881   -2.1544    0.0000 C   0  0
    5.1383   -1.3688    0.0000 S   0  0
    4.3133   -1.3680    0.0000 C   0  0
    4.0575   -2.1525    0.0000 C   0  0
    4.7240   -2.6381    0.0000 N   0  0
    3.2726   -2.4066    0.0000 O   0  0
    6.7945   -1.2992    0.0000 O   0  0
    7.4988   -0.8697    0.0000 C   0  0
    5.4213   -3.8057    0.0000 O   0  0
    5.4381   -4.6307    0.0000 C   0  0
    4.7383   -3.4631    0.0000 C   0  0
    4.0310   -3.8878    0.0000 C   0  0
    3.3120   -3.4839    0.0000 C   0  0
    2.6052   -3.9080    0.0000 C   0  0
    2.6190   -4.7338    0.0000 C   0  0
    3.3456   -5.1337    0.0000 C   0  0
    4.0493   -4.7073    0.0000 C   0  0
    1.9124   -5.1595    0.0000 O   0  0
    1.1902   -4.7605    0.0000 C   0  0
    1.1749   -3.9356    0.0000 F   0  0
    0.4835   -5.1862    0.0000 F   0  0
    0.4708   -4.3461    0.0000 F   0  0
  1  2  2  0
  2  3  1  0
  3  4  2  0
  4  5  1  0
  5  6  2  0
  6  1  1  0
  1  7  1  0
  7  8  1  0
  8  9  1  0
  9 10  1  0
 10 11  1  0
 11  7  1  0
 10 12  2  0
  6 13  1  0
 13 14  1  0
  2 15  1  0
 15 16  1  0
 11 17  1  0
 17 18  1  0
 18 19  2  0
 19 20  1  0
 20 21  2  0
 21 22  1  0
 22 23  2  0
 23 18  1  0
 21 24  1  0
 24 25  1  0
 25 26  1  0
 25 27  1  0
 25 28  1  0
M  END
> <chembl_id>
CHEMBL3113772

$$$$

  SciTegic04091416462D

 30 33  0  0  0  0            999 V2000
   16.1657  -22.4792    0.0000 C   0  0
   15.4583  -22.9041    0.0000 C   0  0
   14.7393  -22.5001    0.0000 C   0  0
   14.0323  -22.9242    0.0000 C   0  0
   15.4767  -23.7235    0.0000 C   0  0
   16.1529  -21.6571    0.0000 N   0  0
   16.8575  -21.2381    0.0000 C   0  0
   16.8467  -20.4195    0.0000 C   0  0
   16.1300  -20.0157    0.0000 C   0  0
   15.4224  -20.4365    0.0000 C   0  0
   15.4316  -21.2615    0.0000 C   0  0
   17.5387  -21.5678    0.0000 C   0  0
   17.5549  -22.3950    0.0000 C   0  0
   18.2785  -22.7929    0.0000 C   0  0
   18.9861  -22.3644    0.0000 C   0  0
   18.9658  -21.5341    0.0000 C   0  0
   18.2419  -21.1400    0.0000 C   0  0
   18.2221  -20.3150    0.0000 O   0  0
   18.9266  -19.8855    0.0000 C   0  0
   16.8489  -22.8220    0.0000 O   0  0
   16.8656  -23.6468    0.0000 C   0  0
   14.7241  -21.6859    0.0000 O   0  0
   14.7730  -24.1500    0.0000 C   0  0
   14.0483  -23.7506    0.0000 C   0  0
   14.7898  -24.9749    0.0000 C   0  0
   14.0849  -25.3983    0.0000 N   0  0
   14.1014  -26.2227    0.0000 C   0  0
   14.8250  -26.6212    0.0000 C   0  0
   15.5332  -26.1898    0.0000 C   0  0
   15.5132  -25.3668    0.0000 N   0  0
  6  1  1  0
  1  2  1  0
  2  3  2  0
  3  4  1  0
  4 24  2  0
 23  5  2  0
  5  2  1  0
  6  7  1  0
  6 11  1  0
  7  8  1  0
  8  9  1  0
  9 10  1  0
 10 11  1  0
  7 12  1  0
 12 13  2  0
 13 14  1  0
 14 15  2  0
 15 16  1  0
 16 17  2  0
 17 12  1  0
 17 18  1  0
 18 19  1  0
 13 20  1  0
 20 21  1  0
 11 22  2  0
 23 24  1  0
 23 25  1  0
 25 26  2  0
 26 27  1  0
 27 28  2  0
 28 29  1  0
 29 30  2  0
 30 25  1  0
M  END
> <chembl_id>
CHEMBL3113748

$$$$

  SciTegic04091416462D

 30 32  0  0  0  0            999 V2000
   32.3595   -1.9854    0.0000 C   0  0
   32.3756   -2.8128    0.0000 C   0  0
   33.0992   -3.2107    0.0000 C   0  0
   33.8069   -2.7823    0.0000 C   0  0
   33.7866   -1.9518    0.0000 C   0  0
   33.0627   -1.5576    0.0000 C   0  0
   33.0429   -0.7328    0.0000 O   0  0
   33.7474   -0.3032    0.0000 C   0  0
   31.6695   -3.2398    0.0000 O   0  0
   31.6861   -4.0647    0.0000 C   0  0
   30.9818   -2.6717    0.0000 C   0  0
   30.2745   -3.0967    0.0000 C   0  0
   29.5552   -2.6925    0.0000 C   0  0
   28.8483   -3.1168    0.0000 C   0  0
   28.8621   -3.9427    0.0000 C   0  0
   29.5889   -4.3425    0.0000 C   0  0
   30.2928   -3.9161    0.0000 C   0  0
   28.1553   -4.3685    0.0000 O   0  0
   27.4332   -3.9693    0.0000 C   0  0
   27.4178   -3.1443    0.0000 F   0  0
   26.7265   -4.3950    0.0000 F   0  0
   26.7138   -3.5548    0.0000 F   0  0
   30.9689   -1.8496    0.0000 N   0  0
   30.2272   -1.5068    0.0000 C   0  0
   30.0296   -0.7067    0.0000 C   0  0
   31.7060   -1.4814    0.0000 C   0  0
   30.5274   -0.0540    0.0000 C   0  0
   31.8750   -0.6752    0.0000 C   0  0
   31.3485   -0.0423    0.0000 C   0  0
   29.5908   -2.0323    0.0000 O   0  0
  1  2  2  0
  2  3  1  0
  3  4  2  0
  4  5  1  0
  5  6  2  0
  6  1  1  0
  6  7  1  0
  7  8  1  0
  2  9  1  0
  9 10  1  0
 23 11  1  0
 11 12  1  0
 12 13  2  0
 13 14  1  0
 14 15  2  0
 15 16  1  0
 16 17  2  0
 17 12  1  0
 15 18  1  0
 18 19  1  0
 19 20  1  0
 19 21  1  0
 19 22  1  0
 23 24  1  0
 24 25  1  0
 23 26  1  0
 25 27  1  0
 26 28  1  0
 27 29  1  0
 28 29  1  0
 26  1  1  0
 24 30  2  0
M  END
> <chembl_id>
CHEMBL3113775

$$$$

  SciTegic04091416462D

 29 32  0  0  0  0            999 V2000
   10.1287  -21.7194    0.0000 C   0  0
    9.4211  -22.1444    0.0000 C   0  0
    8.7020  -21.7403    0.0000 C   0  0
    7.9950  -22.1646    0.0000 C   0  0
    9.4395  -22.9641    0.0000 C   0  0
   10.1159  -20.8972    0.0000 N   0  0
   10.8203  -20.4782    0.0000 C   0  0
   10.8095  -19.6596    0.0000 C   0  0
   10.0928  -19.2557    0.0000 C   0  0
    9.3853  -19.6767    0.0000 C   0  0
    9.3945  -20.5016    0.0000 C   0  0
   11.5018  -20.8079    0.0000 C   0  0
   11.5180  -21.6354    0.0000 C   0  0
   12.2414  -22.0332    0.0000 C   0  0
   12.9493  -21.6049    0.0000 C   0  0
   12.9291  -20.7742    0.0000 C   0  0
   12.2050  -20.3801    0.0000 C   0  0
   12.1852  -19.5552    0.0000 O   0  0
   12.8898  -19.1254    0.0000 C   0  0
   10.8118  -22.0623    0.0000 O   0  0
   10.8285  -22.8874    0.0000 C   0  0
    8.6867  -20.9260    0.0000 O   0  0
    8.7356  -23.3906    0.0000 C   0  0
    8.0109  -22.9911    0.0000 C   0  0
    8.7524  -24.2157    0.0000 N   0  0
    8.0973  -24.7180    0.0000 N   0  0
    8.3684  -25.4975    0.0000 C   0  0
    9.1935  -25.4805    0.0000 C   0  0
    9.4322  -24.6906    0.0000 N   0  0
  6  1  1  0
  1  2  1  0
  2  3  2  0
  3  4  1  0
  4 24  2  0
 23  5  2  0
  5  2  1  0
  6  7  1  0
  6 11  1  0
  7  8  1  0
  8  9  1  0
  9 10  1  0
 10 11  1  0
  7 12  1  0
 12 13  2  0
 13 14  1  0
 14 15  2  0
 15 16  1  0
 16 17  2  0
 17 12  1  0
 17 18  1  0
 18 19  1  0
 13 20  1  0
 20 21  1  0
 11 22  2  0
 23 24  1  0
 23 25  1  0
 25 26  1  0
 26 27  2  0
 27 28  1  0
 28 29  2  0
 29 25  1  0
M  END
> <chembl_id>
CHEMBL3113747

$$$$

  SciTegic04091416462D

 31 34  0  0  0  0            999 V2000
   34.5884  -19.7107    0.0000 C   0  0
   33.8807  -20.1358    0.0000 C   0  0
   33.1611  -19.7316    0.0000 C   0  0
   32.4540  -20.1558    0.0000 C   0  0
   32.4678  -20.9823    0.0000 C   0  0
   33.1947  -21.3825    0.0000 C   0  0
   33.8991  -20.9557    0.0000 C   0  0
   31.7605  -21.4084    0.0000 O   0  0
   31.0380  -21.0090    0.0000 C   0  0
   34.5756  -18.8879    0.0000 N   0  0
   35.2805  -18.4690    0.0000 C   0  0
   35.2697  -17.6497    0.0000 C   0  0
   34.5525  -17.2459    0.0000 C   0  0
   33.8448  -17.6669    0.0000 C   0  0
   33.8540  -18.4923    0.0000 C   0  0
   35.9621  -18.7985    0.0000 C   0  0
   35.9784  -19.6265    0.0000 C   0  0
   36.7023  -20.0246    0.0000 C   0  0
   37.4103  -19.5959    0.0000 C   0  0
   37.3900  -18.7650    0.0000 C   0  0
   36.6658  -18.3708    0.0000 C   0  0
   36.6460  -17.5453    0.0000 O   0  0
   37.3508  -17.1156    0.0000 C   0  0
   35.2719  -20.0537    0.0000 O   0  0
   35.2887  -20.8790    0.0000 C   0  0
   33.1458  -18.9167    0.0000 O   0  0
   31.0281  -20.1840    0.0000 C   0  0
   30.3063  -19.7848    0.0000 C   0  0
   29.5981  -20.2108    0.0000 C   0  0
   29.6163  -21.0406    0.0000 C   0  0
   30.3384  -21.4363    0.0000 C   0  0
 10  1  1  0
  1  2  1  0
  2  3  2  0
  3  4  1  0
  4  5  2  0
  5  6  1  0
  6  7  2  0
  7  2  1  0
  5  8  1  0
  8  9  1  0
 10 11  1  0
 10 15  1  0
 11 12  1  0
 12 13  1  0
 13 14  1  0
 14 15  1  0
 11 16  1  0
 16 17  2  0
 17 18  1  0
 18 19  2  0
 19 20  1  0
 20 21  2  0
 21 16  1  0
 21 22  1  0
 22 23  1  0
 17 24  1  0
 24 25  1  0
 15 26  2  0
  9 27  2  0
 27 28  1  0
 28 29  2  0
 29 30  1  0
 30 31  2  0
 31  9  1  0
M  END
> <chembl_id>
CHEMBL3113547

$$$$

  SciTegic04091416462D

 31 33  0  0  0  0            999 V2000
   21.7488  -20.0460    0.0000 C   0  0
   22.1529  -19.3265    0.0000 C   0  0
   21.3278  -19.3363    0.0000 C   0  0
   21.7819  -22.5070    0.0000 C   0  0
   21.0745  -22.9319    0.0000 C   0  0
   20.3553  -22.5278    0.0000 C   0  0
   19.6483  -22.9520    0.0000 C   0  0
   19.6621  -23.7781    0.0000 C   0  0
   20.3888  -24.1780    0.0000 C   0  0
   21.0928  -23.7514    0.0000 C   0  0
   18.9552  -24.2040    0.0000 O   0  0
   18.2330  -23.8047    0.0000 C   0  0
   18.2176  -22.9796    0.0000 F   0  0
   17.5261  -24.2305    0.0000 F   0  0
   17.5135  -23.3902    0.0000 F   0  0
   21.7691  -21.6848    0.0000 N   0  0
   22.4737  -21.2658    0.0000 C   0  0
   22.4629  -20.4471    0.0000 C   0  0
   21.0386  -20.4642    0.0000 C   0  0
   21.0478  -21.2891    0.0000 C   0  0
   23.1550  -21.5953    0.0000 C   0  0
   23.1713  -22.4228    0.0000 C   0  0
   23.8948  -22.8207    0.0000 C   0  0
   24.6026  -22.3923    0.0000 C   0  0
   24.5823  -21.5618    0.0000 C   0  0
   23.8583  -21.1676    0.0000 C   0  0
   23.8385  -20.3426    0.0000 O   0  0
   24.5431  -19.9130    0.0000 C   0  0
   22.4651  -22.8497    0.0000 O   0  0
   22.4817  -23.6749    0.0000 C   0  0
   20.3401  -21.7135    0.0000 O   0  0
  2  1  1  0
  1  3  1  0
 16  4  1  0
  4  5  1  0
  5  6  2  0
  6  7  1  0
  7  8  2  0
  8  9  1  0
  9 10  2  0
 10  5  1  0
  8 11  1  0
 11 12  1  0
 12 13  1  0
 12 14  1  0
 12 15  1  0
 16 17  1  0
 16 20  1  0
 17 18  1  0
 18  1  1  0
  1 19  1  0
 19 20  1  0
 17 21  1  0
 21 22  2  0
 22 23  1  0
 23 24  2  0
 24 25  1  0
 25 26  2  0
 26 21  1  0
 26 27  1  0
 27 28  1  0
 22 29  1  0
 29 30  1  0
 20 31  2  0
M  END
> <chembl_id>
CHEMBL3113762

$$$$

  SciTegic04091416462D

 30 33  0  0  0  0            999 V2000
   26.4100  -25.9289    0.0000 C   0  0
   25.6904  -25.5246    0.0000 C   0  0
   24.9829  -25.9491    0.0000 C   0  0
   24.9967  -26.7757    0.0000 C   0  0
   25.7240  -27.1759    0.0000 C   0  0
   26.4284  -26.7491    0.0000 C   0  0
   27.1052  -24.6810    0.0000 N   0  0
   27.8101  -24.2617    0.0000 C   0  0
   27.7993  -23.4425    0.0000 C   0  0
   27.0821  -23.0384    0.0000 C   0  0
   26.3742  -23.4596    0.0000 C   0  0
   26.3834  -24.2851    0.0000 C   0  0
   28.4920  -24.5915    0.0000 C   0  0
   28.5082  -25.4195    0.0000 C   0  0
   29.2322  -25.8177    0.0000 C   0  0
   29.9405  -25.3890    0.0000 C   0  0
   29.9202  -24.5579    0.0000 C   0  0
   29.1957  -24.1635    0.0000 C   0  0
   29.1759  -23.3380    0.0000 O   0  0
   29.8810  -22.9080    0.0000 C   0  0
   25.6751  -24.7098    0.0000 O   0  0
   27.8015  -25.8468    0.0000 O   0  0
   27.0782  -25.4484    0.0000 C   0  0
   27.1524  -27.1463    0.0000 C   0  0
   27.1659  -27.9693    0.0000 C   0  0
   27.8890  -28.3664    0.0000 C   0  0
   28.5961  -27.9379    0.0000 C   0  0
   28.5754  -27.1081    0.0000 C   0  0
   27.8517  -26.7147    0.0000 C   0  0
   28.5146  -26.2583    0.0000 C   0  0
  7 23  1  0
 23  1  1  0
  1  2  2  0
  2  3  1  0
  3  4  2  0
  4  5  1  0
  5  6  2  0
  6  1  1  0
  7  8  1  0
  7 12  1  0
  8  9  1  0
  9 10  1  0
 10 11  1  0
 11 12  1  0
  8 13  1  0
 13 14  2  0
 14 15  1  0
 15 16  2  0
 16 17  1  0
 17 18  2  0
 18 13  1  0
 18 19  1  0
 19 20  1  0
 12 21  2  0
 14 22  1  0
  6 24  1  0
 24 25  2  0
 25 26  1  0
 26 27  2  0
 27 28  1  0
 28 29  2  0
 29 24  1  0
 22 30  1  0
M  END
> <chembl_id>
CHEMBL3113551

$$$$

  SciTegic04091416462D

 28 30  0  0  0  0            999 V2000
    7.3928   -9.1328    0.0000 O   0  0
    9.1906  -10.3163    0.0000 C   0  0
    9.2067  -11.1436    0.0000 C   0  0
    9.9301  -11.5413    0.0000 C   0  0
   10.6377  -11.1130    0.0000 C   0  0
   10.6174  -10.2827    0.0000 C   0  0
    9.8935   -9.8887    0.0000 C   0  0
    8.4674   -9.9192    0.0000 C   0  0
    8.2178   -9.1336    0.0000 C   0  0
    7.1371   -9.9172    0.0000 C   0  0
    7.8036  -10.4028    0.0000 N   0  0
    6.3522  -10.1714    0.0000 O   0  0
    9.8737   -9.0639    0.0000 O   0  0
   10.5781   -8.6344    0.0000 C   0  0
    8.5008  -11.5704    0.0000 O   0  0
    8.5174  -12.3952    0.0000 C   0  0
    7.8178  -11.2277    0.0000 C   0  0
    7.1106  -11.6525    0.0000 C   0  0
    6.3916  -11.2485    0.0000 C   0  0
    5.6848  -11.6726    0.0000 C   0  0
    5.6987  -12.4984    0.0000 C   0  0
    6.4251  -12.8981    0.0000 C   0  0
    7.1290  -12.4717    0.0000 C   0  0
    4.9920  -12.9241    0.0000 O   0  0
    4.2700  -12.5249    0.0000 C   0  0
    4.2546  -11.7001    0.0000 F   0  0
    3.5634  -12.9506    0.0000 F   0  0
    3.5507  -12.1106    0.0000 F   0  0
  2  3  2  0
  3  4  1  0
  4  5  2  0
  5  6  1  0
  6  7  2  0
  7  2  1  0
  2  8  1  0
  8  9  1  0
  9  1  1  0
  1 10  1  0
 10 11  1  0
 11  8  1  0
 10 12  2  0
  7 13  1  0
 13 14  1  0
  3 15  1  0
 15 16  1  0
 11 17  1  0
 17 18  1  0
 18 19  2  0
 19 20  1  0
 20 21  2  0
 21 22  1  0
 22 23  2  0
 23 18  1  0
 21 24  1  0
 24 25  1  0
 25 26  1  0
 25 27  1  0
 25 28  1  0
M  END
> <chembl_id>
CHEMBL3113767

$$$$

  SciTegic04091416462D

 29 31  0  0  0  0            999 V2000
   33.4198  -21.5561    0.0000 C   0  0
   33.4360  -22.3833    0.0000 C   0  0
   34.1593  -22.7811    0.0000 C   0  0
   34.8670  -22.3528    0.0000 C   0  0
   34.8467  -21.5226    0.0000 C   0  0
   34.1228  -21.1285    0.0000 C   0  0
   32.6967  -21.1589    0.0000 C   0  0
   32.4470  -20.3734    0.0000 C   0  0
   31.6220  -20.3725    0.0000 C   0  0
   31.3662  -21.1569    0.0000 C   0  0
   32.0328  -21.6426    0.0000 N   0  0
   30.5814  -21.4111    0.0000 O   0  0
   34.1030  -20.3037    0.0000 O   0  0
   34.8074  -19.8742    0.0000 C   0  0
   32.7300  -22.8102    0.0000 O   0  0
   32.7466  -23.6350    0.0000 C   0  0
   32.0470  -22.4675    0.0000 C   0  0
   31.3398  -22.8923    0.0000 C   0  0
   30.6208  -22.4883    0.0000 C   0  0
   29.9140  -22.9125    0.0000 C   0  0
   29.9278  -23.7382    0.0000 C   0  0
   30.6544  -24.1381    0.0000 C   0  0
   31.3582  -23.7116    0.0000 C   0  0
   29.2211  -24.1639    0.0000 O   0  0
   28.4990  -23.7648    0.0000 C   0  0
   28.4837  -22.9399    0.0000 F   0  0
   27.7924  -24.1906    0.0000 F   0  0
   27.7797  -23.3505    0.0000 F   0  0
   31.1378  -19.7045    0.0000 C   0  0
  1  2  2  0
  2  3  1  0
  3  4  2  0
  4  5  1  0
  5  6  2  0
  6  1  1  0
  1  7  1  0
  7  8  1  0
  8  9  1  0
  9 10  1  0
 10 11  1  0
 11  7  1  0
 10 12  2  0
  6 13  1  0
 13 14  1  0
  2 15  1  0
 15 16  1  0
 11 17  1  0
 17 18  1  0
 18 19  2  0
 19 20  1  0
 20 21  2  0
 21 22  1  0
 22 23  2  0
 23 18  1  0
 21 24  1  0
 24 25  1  0
 25 26  1  0
 25 27  1  0
 25 28  1  0
  9 29  1  0
M  END
> <chembl_id>
CHEMBL3113763

$$$$

  SciTegic04091416462D

 31 33  0  0  0  0            999 V2000
    4.4598  -13.5994    0.0000 C   0  0
    3.7525  -14.0242    0.0000 C   0  0
    3.0333  -13.6202    0.0000 C   0  0
    2.3264  -14.0443    0.0000 C   0  0
    2.3402  -14.8704    0.0000 C   0  0
    3.0669  -15.2703    0.0000 C   0  0
    3.7709  -14.8437    0.0000 C   0  0
    1.6334  -15.2961    0.0000 O   0  0
    0.9112  -14.8969    0.0000 C   0  0
    0.8957  -14.0719    0.0000 F   0  0
    0.2044  -15.3227    0.0000 F   0  0
    0.1918  -14.4825    0.0000 F   0  0
    4.4471  -12.7772    0.0000 N   0  0
    5.1516  -12.3582    0.0000 C   0  0
    5.1408  -11.5396    0.0000 C   0  0
    4.4241  -11.1356    0.0000 C   0  0
    3.7166  -11.5566    0.0000 C   0  0
    3.7258  -12.3815    0.0000 C   0  0
    5.8329  -12.6878    0.0000 C   0  0
    5.8491  -13.5152    0.0000 C   0  0
    6.5726  -13.9130    0.0000 C   0  0
    7.2803  -13.4847    0.0000 C   0  0
    7.2600  -12.6542    0.0000 C   0  0
    6.5361  -12.2600    0.0000 C   0  0
    6.5164  -11.4351    0.0000 O   0  0
    7.2209  -11.0055    0.0000 C   0  0
    5.1430  -13.9420    0.0000 O   0  0
    5.1596  -14.7672    0.0000 C   0  0
    5.8824  -15.1653    0.0000 C   0  0
    7.2012  -10.1805    0.0000 C   0  0
    3.0180  -12.8059    0.0000 O   0  0
 13  1  1  0
  1  2  1  0
  2  3  2  0
  3  4  1  0
  4  5  2  0
  5  6  1  0
  6  7  2  0
  7  2  1  0
  5  8  1  0
  8  9  1  0
  9 10  1  0
  9 11  1  0
  9 12  1  0
 13 14  1  0
 13 18  1  0
 14 15  1  0
 15 16  1  0
 16 17  1  0
 17 18  1  0
 14 19  1  0
 19 20  2  0
 20 21  1  0
 21 22  2  0
 22 23  1  0
 23 24  2  0
 24 19  1  0
 24 25  1  0
 25 26  1  0
 20 27  1  0
 27 28  1  0
 28 29  1  0
 26 30  1  0
 18 31  2  0
M  END
> <chembl_id>
CHEMBL3113539

$$$$

  SciTegic04091416462D

 29 32  0  0  0  0            999 V2000
    5.3931   -9.4061    0.0000 C   0  0
    4.6857   -9.8308    0.0000 C   0  0
    5.3804   -8.5841    0.0000 N   0  0
    6.0847   -8.1651    0.0000 C   0  0
    6.0739   -7.3464    0.0000 C   0  0
    5.3574   -6.9426    0.0000 C   0  0
    4.6498   -7.3634    0.0000 C   0  0
    4.6591   -8.1884    0.0000 C   0  0
    6.7661   -8.4947    0.0000 C   0  0
    6.7823   -9.3220    0.0000 C   0  0
    7.5056   -9.7198    0.0000 C   0  0
    8.2134   -9.2914    0.0000 C   0  0
    8.1931   -8.4611    0.0000 C   0  0
    7.4691   -8.0669    0.0000 C   0  0
    7.4494   -7.2419    0.0000 O   0  0
    8.1540   -6.8125    0.0000 C   0  0
    6.0761   -9.7489    0.0000 O   0  0
    6.0927  -10.5738    0.0000 C   0  0
    3.9513   -8.6128    0.0000 O   0  0
    3.9013   -9.5811    0.0000 N   0  0
    3.4201  -10.2513    0.0000 C   0  0
    3.9091  -10.9162    0.0000 S   0  0
    4.6922  -10.6565    0.0000 C   0  0
    2.5949  -10.2562    0.0000 C   0  0
    2.1835   -9.5445    0.0000 C   0  0
    1.3591   -9.5490    0.0000 C   0  0
    0.9498  -10.2664    0.0000 C   0  0
    1.3710  -10.9809    0.0000 C   0  0
    2.1940  -10.9730    0.0000 C   0  0
  3  1  1  0
  1  2  1  0
  3  4  1  0
  3  8  1  0
  4  5  1  0
  5  6  1  0
  6  7  1  0
  7  8  1  0
  4  9  1  0
  9 10  2  0
 10 11  1  0
 11 12  2  0
 12 13  1  0
 13 14  2  0
 14  9  1  0
 14 15  1  0
 15 16  1  0
 10 17  1  0
 17 18  1  0
  8 19  2  0
  2 20  1  0
 20 21  2  0
 21 22  1  0
 22 23  1  0
 23  2  2  0
 21 24  1  0
 24 25  2  0
 25 26  1  0
 26 27  2  0
 27 28  1  0
 28 29  2  0
 29 24  1  0
M  END
> <chembl_id>
CHEMBL3113751

$$$$

  SciTegic04091416462D

 31 33  0  0  0  0            999 V2000
   12.8202  -13.3827    0.0000 C   0  0
   12.1127  -13.8075    0.0000 C   0  0
   11.3936  -13.4035    0.0000 C   0  0
   10.6867  -13.8276    0.0000 C   0  0
   10.7005  -14.6537    0.0000 C   0  0
   11.4272  -15.0536    0.0000 C   0  0
   12.1311  -14.6270    0.0000 C   0  0
    9.9937  -15.0795    0.0000 O   0  0
    9.2715  -14.6802    0.0000 C   0  0
    9.2561  -13.8552    0.0000 F   0  0
    8.5647  -15.1061    0.0000 F   0  0
    8.5520  -14.2658    0.0000 F   0  0
   12.8074  -12.5604    0.0000 N   0  0
   13.5118  -12.1415    0.0000 C   0  0
   13.5010  -11.3229    0.0000 C   0  0
   12.7843  -10.9189    0.0000 C   0  0
   12.0768  -11.3399    0.0000 C   0  0
   12.0860  -12.1648    0.0000 C   0  0
   14.1932  -12.4710    0.0000 C   0  0
   14.2094  -13.2985    0.0000 C   0  0
   14.9329  -13.6962    0.0000 C   0  0
   15.6406  -13.2680    0.0000 C   0  0
   15.6203  -12.4375    0.0000 C   0  0
   14.8964  -12.0434    0.0000 C   0  0
   14.8767  -11.2184    0.0000 O   0  0
   15.5811  -10.7888    0.0000 C   0  0
   13.5033  -13.7253    0.0000 O   0  0
   13.5199  -14.5505    0.0000 C   0  0
   16.3645  -13.6643    0.0000 O   0  0
   16.3831  -14.4893    0.0000 C   0  0
   11.3783  -12.5891    0.0000 O   0  0
 13  1  1  0
  1  2  1  0
  2  3  2  0
  3  4  1  0
  4  5  2  0
  5  6  1  0
  6  7  2  0
  7  2  1  0
  5  8  1  0
  8  9  1  0
  9 10  1  0
  9 11  1  0
  9 12  1  0
 13 14  1  0
 13 18  1  0
 14 15  1  0
 15 16  1  0
 16 17  1  0
 17 18  1  0
 14 19  1  0
 19 20  2  0
 20 21  1  0
 21 22  2  0
 22 23  1  0
 23 24  2  0
 24 19  1  0
 24 25  1  0
 25 26  1  0
 20 27  1  0
 27 28  1  0
 22 29  1  0
 29 30  1  0
 18 31  2  0
M  END
> <chembl_id>
CHEMBL3113540

$$$$

  SciTegic04091416462D

 29 31  0  0  0  0            999 V2000
   13.8848  -16.1479    0.0000 C   0  0
   13.1773  -16.5729    0.0000 C   0  0
   12.4581  -16.1688    0.0000 C   0  0
   11.7510  -16.5931    0.0000 C   0  0
   11.7649  -17.4191    0.0000 C   0  0
   12.4916  -17.8192    0.0000 C   0  0
   13.1956  -17.3926    0.0000 C   0  0
   11.0579  -17.8450    0.0000 O   0  0
   10.3356  -17.4458    0.0000 C   0  0
   10.3203  -16.6206    0.0000 F   0  0
    9.6287  -17.8717    0.0000 F   0  0
    9.6160  -17.0313    0.0000 F   0  0
   13.8720  -15.3257    0.0000 N   0  0
   14.5766  -14.9066    0.0000 C   0  0
   14.5658  -14.0879    0.0000 C   0  0
   13.8489  -13.6839    0.0000 N   0  0
   13.1414  -14.1051    0.0000 C   0  0
   13.1506  -14.9300    0.0000 C   0  0
   15.2580  -15.2363    0.0000 C   0  0
   15.2743  -16.0638    0.0000 C   0  0
   15.9979  -16.4617    0.0000 C   0  0
   16.7057  -16.0332    0.0000 C   0  0
   16.6854  -15.2027    0.0000 C   0  0
   15.9613  -14.8085    0.0000 C   0  0
   15.9415  -13.9835    0.0000 O   0  0
   16.6461  -13.5537    0.0000 C   0  0
   14.5680  -16.4908    0.0000 O   0  0
   14.5847  -17.3159    0.0000 C   0  0
   12.4428  -15.3544    0.0000 O   0  0
 13  1  1  0
  1  2  1  0
  2  3  2  0
  3  4  1  0
  4  5  2  0
  5  6  1  0
  6  7  2  0
  7  2  1  0
  5  8  1  0
  8  9  1  0
  9 10  1  0
  9 11  1  0
  9 12  1  0
 13 14  1  0
 13 18  1  0
 14 15  1  0
 15 16  1  0
 16 17  1  0
 17 18  1  0
 14 19  1  0
 19 20  2  0
 20 21  1  0
 21 22  2  0
 22 23  1  0
 23 24  2  0
 24 19  1  0
 24 25  1  0
 25 26  1  0
 20 27  1  0
 27 28  1  0
 18 29  2  0
M  END
> <chembl_id>
CHEMBL3113757

$$$$

  SciTegic04091416462D

 28 31  0  0  0  0            999 V2000
    3.9017   -8.3945    0.0000 C   0  0
    3.1943   -8.8194    0.0000 C   0  0
    2.4749   -8.4153    0.0000 C   0  0
    1.7681   -8.8395    0.0000 C   0  0
    3.2125   -9.6389    0.0000 C   0  0
    3.8888   -7.5723    0.0000 N   0  0
    4.5933   -7.1533    0.0000 C   0  0
    4.5826   -6.3346    0.0000 C   0  0
    3.8658   -5.9307    0.0000 C   0  0
    3.1583   -6.3517    0.0000 C   0  0
    3.1675   -7.1766    0.0000 C   0  0
    5.2748   -7.4829    0.0000 C   0  0
    5.2910   -8.3103    0.0000 C   0  0
    6.0146   -8.7082    0.0000 C   0  0
    6.7224   -8.2798    0.0000 C   0  0
    6.7021   -7.4493    0.0000 C   0  0
    5.9780   -7.0551    0.0000 C   0  0
    5.9582   -6.2301    0.0000 O   0  0
    6.6628   -5.8005    0.0000 C   0  0
    4.5848   -8.7372    0.0000 O   0  0
    4.6015   -9.5624    0.0000 C   0  0
    2.4598   -7.6010    0.0000 O   0  0
    2.5086  -10.0655    0.0000 C   0  0
    1.7840   -9.6660    0.0000 C   0  0
    1.0778  -10.0937    0.0000 C   0  0
    1.0951  -10.9208    0.0000 C   0  0
    1.8244  -11.3182    0.0000 C   0  0
    2.5276  -10.8882    0.0000 C   0  0
  6  1  1  0
  1  2  1  0
  2  3  2  0
  3  4  1  0
  4 24  2  0
 23  5  2  0
  5  2  1  0
  6  7  1  0
  6 11  1  0
  7  8  1  0
  8  9  1  0
  9 10  1  0
 10 11  1  0
  7 12  1  0
 12 13  2  0
 13 14  1  0
 14 15  2  0
 15 16  1  0
 16 17  2  0
 17 12  1  0
 17 18  1  0
 18 19  1  0
 13 20  1  0
 20 21  1  0
 11 22  2  0
 23 24  1  0
 24 25  1  0
 25 26  2  0
 26 27  1  0
 27 28  2  0
 28 23  1  0
M  END
> <chembl_id>
CHEMBL3113552

$$$$

  SciTegic04091416462D

 23 25  0  0  0  0            999 V2000
   35.8163  -13.9427    0.0000 N   0  0
   36.5213  -13.5234    0.0000 C   0  0
   36.5106  -12.7041    0.0000 C   0  0
   35.7933  -12.3000    0.0000 C   0  0
   35.0853  -12.7213    0.0000 C   0  0
   35.0945  -13.5468    0.0000 C   0  0
   37.2033  -13.8533    0.0000 C   0  0
   37.2196  -14.6814    0.0000 C   0  0
   37.9437  -15.0796    0.0000 C   0  0
   38.6520  -14.6509    0.0000 C   0  0
   38.6317  -13.8196    0.0000 C   0  0
   37.9071  -13.4252    0.0000 C   0  0
   37.8873  -12.5996    0.0000 O   0  0
   38.5924  -12.1696    0.0000 C   0  0
   34.3862  -13.9715    0.0000 O   0  0
   35.8307  -14.7685    0.0000 C   0  0
   35.1222  -15.1885    0.0000 C   0  0
   35.1362  -16.0134    0.0000 C   0  0
   35.8590  -16.4148    0.0000 C   0  0
   36.5692  -15.9850    0.0000 C   0  0
   36.5518  -15.1614    0.0000 C   0  0
   37.2134  -15.5035    0.0000 O   0  0
   37.9267  -15.9164    0.0000 C   0  0
  1  2  1  0
  1  6  1  0
  2  3  1  0
  3  4  1  0
  4  5  1  0
  5  6  1  0
  2  7  1  0
  7  8  2  0
  8  9  1  0
  9 10  2  0
 10 11  1  0
 11 12  2  0
 12  7  1  0
 12 13  1  0
 13 14  1  0
  6 15  2  0
  1 16  1  0
 16 17  2  0
 17 18  1  0
 18 19  2  0
 19 20  1  0
 20 21  2  0
 21 16  1  0
  8 22  1  0
 22 23  1  0
M  END
> <chembl_id>
CHEMBL3113542

$$$$

  SciTegic04091416462D

 28 30  0  0  0  0            999 V2000
   14.9481   -2.1973    0.0000 C   0  0
   14.9643   -3.0245    0.0000 C   0  0
   15.6876   -3.4223    0.0000 C   0  0
   16.3952   -2.9940    0.0000 C   0  0
   16.3749   -2.1638    0.0000 C   0  0
   15.6511   -1.7697    0.0000 C   0  0
   14.2250   -1.8001    0.0000 C   0  0
   13.9753   -1.0146    0.0000 C   0  0
   13.1503   -1.0137    0.0000 C   0  0
   12.8946   -1.7981    0.0000 C   0  0
   13.5611   -2.2838    0.0000 N   0  0
   12.1098   -2.0523    0.0000 O   0  0
   15.6313   -0.9449    0.0000 O   0  0
   16.3356   -0.5155    0.0000 C   0  0
   14.2583   -3.4513    0.0000 O   0  0
   14.2750   -4.2761    0.0000 C   0  0
   13.5753   -3.1087    0.0000 C   0  0
   12.8682   -3.5334    0.0000 C   0  0
   12.1492   -3.1295    0.0000 C   0  0
   11.4424   -3.5536    0.0000 C   0  0
   11.4562   -4.3793    0.0000 C   0  0
   12.1827   -4.7792    0.0000 C   0  0
   12.8865   -4.3528    0.0000 C   0  0
   10.7495   -4.8050    0.0000 O   0  0
   10.0275   -4.4060    0.0000 C   0  0
   10.0122   -3.5811    0.0000 F   0  0
    9.3209   -4.8317    0.0000 F   0  0
    9.3082   -3.9916    0.0000 F   0  0
  1  2  2  0
  2  3  1  0
  3  4  2  0
  4  5  1  0
  5  6  2  0
  6  1  1  0
  1  7  1  0
  7  8  1  0
  8  9  1  0
  9 10  1  0
 10 11  1  0
 11  7  1  0
 10 12  2  0
  6 13  1  0
 13 14  1  0
  2 15  1  0
 15 16  1  0
 11 17  1  0
 17 18  1  0
 18 19  2  0
 19 20  1  0
 20 21  2  0
 21 22  1  0
 22 23  2  0
 23 18  1  0
 21 24  1  0
 24 25  1  0
 25 26  1  0
 25 27  1  0
 25 28  1  0
M  END
> <chembl_id>
CHEMBL3113773

$$$$

  SciTegic04091416462D

 25 27  0  0  0  0            999 V2000
    1.8842  -19.3037    0.0000 C   0  0
    1.1768  -19.7285    0.0000 C   0  0
    1.8714  -18.4815    0.0000 N   0  0
    2.5757  -18.0627    0.0000 C   0  0
    2.5649  -17.2440    0.0000 C   0  0
    1.8483  -16.8402    0.0000 C   0  0
    1.1408  -17.2610    0.0000 C   0  0
    1.1500  -18.0860    0.0000 C   0  0
    3.2571  -18.3922    0.0000 C   0  0
    3.2733  -19.2194    0.0000 C   0  0
    3.9969  -19.6173    0.0000 C   0  0
    4.7045  -19.1889    0.0000 C   0  0
    4.6842  -18.3586    0.0000 C   0  0
    3.9603  -17.9645    0.0000 C   0  0
    3.9406  -17.1394    0.0000 O   0  0
    4.6449  -16.7101    0.0000 C   0  0
    2.5672  -19.6464    0.0000 O   0  0
    2.5838  -20.4713    0.0000 C   0  0
    0.4425  -18.5101    0.0000 O   0  0
    1.1887  -20.5535    0.0000 C   0  0
    0.4775  -20.9737    0.0000 C   0  0
    0.4891  -21.7979    0.0000 C   0  0
    1.2100  -22.2009    0.0000 C   0  0
    1.9209  -21.7735    0.0000 C   0  0
    1.9058  -20.9507    0.0000 C   0  0
  3  1  1  0
  1  2  1  0
  3  4  1  0
  3  8  1  0
  4  5  1  0
  5  6  1  0
  6  7  1  0
  7  8  1  0
  4  9  1  0
  9 10  2  0
 10 11  1  0
 11 12  2  0
 12 13  1  0
 13 14  2  0
 14  9  1  0
 14 15  1  0
 15 16  1  0
 10 17  1  0
 17 18  1  0
  8 19  2  0
  2 20  1  0
 20 21  2  0
 21 22  1  0
 22 23  2  0
 23 24  1  0
 24 25  2  0
 25 20  1  0
M  END
> <chembl_id>
CHEMBL3113543

$$$$

  SciTegic04091416462D

 28 30  0  0  0  0            999 V2000
   28.7361   -8.1700    0.0000 C   0  0
   28.0286   -8.5950    0.0000 C   0  0
   27.3094   -8.1909    0.0000 C   0  0
   26.6023   -8.6151    0.0000 C   0  0
   26.6162   -9.4412    0.0000 C   0  0
   27.3430   -9.8411    0.0000 C   0  0
   28.0470   -9.4147    0.0000 C   0  0
   25.9092   -9.8671    0.0000 O   0  0
   25.1869   -9.4678    0.0000 C   0  0
   25.1716   -8.6427    0.0000 F   0  0
   24.4801   -9.8937    0.0000 F   0  0
   24.4673   -9.0533    0.0000 F   0  0
   28.7233   -7.3477    0.0000 N   0  0
   29.4279   -6.9287    0.0000 C   0  0
   29.4171   -6.1100    0.0000 C   0  0
   28.7002   -5.7060    0.0000 C   0  0
   27.9927   -6.1270    0.0000 C   0  0
   28.0019   -6.9520    0.0000 C   0  0
   30.1094   -7.2584    0.0000 C   0  0
   30.1256   -8.0859    0.0000 C   0  0
   30.8492   -8.4838    0.0000 C   0  0
   31.5570   -8.0553    0.0000 C   0  0
   31.5367   -7.2247    0.0000 C   0  0
   30.8126   -6.8305    0.0000 C   0  0
   30.7928   -6.0055    0.0000 O   0  0
   31.4974   -5.5758    0.0000 C   0  0
   29.4193   -8.5129    0.0000 F   0  0
   27.2941   -7.3765    0.0000 O   0  0
 13  1  1  0
  1  2  1  0
  2  3  2  0
  3  4  1  0
  4  5  2  0
  5  6  1  0
  6  7  2  0
  7  2  1  0
  5  8  1  0
  8  9  1  0
  9 10  1  0
  9 11  1  0
  9 12  1  0
 13 14  1  0
 13 18  1  0
 14 15  1  0
 15 16  1  0
 16 17  1  0
 17 18  1  0
 14 19  1  0
 19 20  2  0
 20 21  1  0
 21 22  2  0
 22 23  1  0
 23 24  2  0
 24 19  1  0
 24 25  1  0
 25 26  1  0
 20 27  1  0
 18 28  2  0
M  END
> <chembl_id>
CHEMBL3113537

$$$$

  SciTegic04091416462D

 29 32  0  0  0  0            999 V2000
   20.3689   -9.3822    0.0000 C   0  0
   19.6615   -9.8071    0.0000 C   0  0
   20.3561   -8.5601    0.0000 N   0  0
   21.0607   -8.1410    0.0000 C   0  0
   21.0499   -7.3222    0.0000 C   0  0
   20.3331   -6.9185    0.0000 C   0  0
   19.6257   -7.3394    0.0000 C   0  0
   19.6349   -8.1644    0.0000 C   0  0
   21.7420   -8.4707    0.0000 C   0  0
   21.7583   -9.2981    0.0000 C   0  0
   22.4818   -9.6960    0.0000 C   0  0
   23.1897   -9.2676    0.0000 C   0  0
   23.1695   -8.4371    0.0000 N   0  0
   22.4453   -8.0429    0.0000 C   0  0
   22.4255   -7.2180    0.0000 O   0  0
   23.1302   -6.7883    0.0000 C   0  0
   21.0522   -9.7251    0.0000 O   0  0
   21.0688  -10.5500    0.0000 C   0  0
   18.9270   -8.5889    0.0000 O   0  0
   18.8769   -9.5573    0.0000 N   0  0
   18.3958  -10.2278    0.0000 C   0  0
   18.8847  -10.8925    0.0000 S   0  0
   19.6680  -10.6328    0.0000 C   0  0
   17.5705  -10.2326    0.0000 C   0  0
   17.1588   -9.5207    0.0000 C   0  0
   16.3345   -9.5251    0.0000 C   0  0
   15.9251  -10.2428    0.0000 C   0  0
   16.3464  -10.9572    0.0000 C   0  0
   17.1694  -10.9494    0.0000 C   0  0
  3  1  1  0
  1  2  1  0
  3  4  1  0
  3  8  1  0
  4  5  1  0
  5  6  1  0
  6  7  1  0
  7  8  1  0
  4  9  1  0
  9 10  2  0
 10 11  1  0
 11 12  2  0
 12 13  1  0
 13 14  2  0
 14  9  1  0
 14 15  1  0
 15 16  1  0
 10 17  1  0
 17 18  1  0
  8 19  2  0
  2 20  1  0
 20 21  2  0
 21 22  1  0
 22 23  1  0
 23  2  2  0
 21 24  1  0
 24 25  2  0
 25 26  1  0
 26 27  2  0
 27 28  1  0
 28 29  2  0
 29 24  1  0
M  END
> <chembl_id>
CHEMBL3113753

$$$$

  SciTegic04091416462D

 31 35  0  0  0  0            999 V2000
   10.5231  -14.5560    0.0000 C   0  0
    9.8152  -14.9811    0.0000 C   0  0
    9.0955  -14.5768    0.0000 C   0  0
    8.3880  -15.0013    0.0000 C   0  0
    9.8335  -15.8012    0.0000 C   0  0
   10.5102  -13.7331    0.0000 N   0  0
   11.2153  -13.3139    0.0000 C   0  0
   11.2045  -12.4947    0.0000 C   0  0
   10.4872  -12.0905    0.0000 C   0  0
    9.7792  -12.5118    0.0000 C   0  0
    9.7884  -13.3373    0.0000 C   0  0
   11.8971  -13.6437    0.0000 C   0  0
   11.9134  -14.4717    0.0000 C   0  0
   12.6374  -14.8698    0.0000 C   0  0
   13.3457  -14.4412    0.0000 C   0  0
   13.3254  -13.6101    0.0000 C   0  0
   12.6008  -13.2157    0.0000 C   0  0
   12.5810  -12.3901    0.0000 O   0  0
   13.2861  -11.9602    0.0000 C   0  0
   11.2067  -14.8989    0.0000 O   0  0
   11.2234  -15.7246    0.0000 C   0  0
    9.0803  -13.7619    0.0000 O   0  0
    9.1287  -16.2279    0.0000 C   0  0
    8.4040  -15.8283    0.0000 C   0  0
    7.8000  -16.3941    0.0000 O   0  0
    8.9725  -17.0406    0.0000 C   0  0
    8.1551  -17.1425    0.0000 C   0  0
    7.8364  -17.9000    0.0000 C   0  0
    8.3340  -18.5562    0.0000 C   0  0
    9.1540  -18.4499    0.0000 C   0  0
    9.4690  -17.6922    0.0000 C   0  0
  6  1  1  0
  1  2  1  0
  2  3  2  0
  3  4  1  0
  4 24  2  0
 23  5  2  0
  5  2  1  0
  6  7  1  0
  6 11  1  0
  7  8  1  0
  8  9  1  0
  9 10  1  0
 10 11  1  0
  7 12  1  0
 12 13  2  0
 13 14  1  0
 14 15  2  0
 15 16  1  0
 16 17  2  0
 17 12  1  0
 17 18  1  0
 18 19  1  0
 13 20  1  0
 20 21  1  0
 11 22  2  0
 23 24  1  0
 24 25  1  0
 25 27  1  0
 26 23  1  0
 26 27  2  0
 27 28  1  0
 28 29  2  0
 29 30  1  0
 30 31  2  0
 31 26  1  0
M  END
> <chembl_id>
CHEMBL3113742

$$$$

  SciTegic04091416462D

 28 30  0  0  0  0            999 V2000
   26.1624  -19.5478    0.0000 C   0  0
   25.4550  -19.9727    0.0000 C   0  0
   24.7357  -19.5686    0.0000 C   0  0
   24.0287  -19.9929    0.0000 C   0  0
   24.0426  -20.8188    0.0000 C   0  0
   24.7694  -21.2188    0.0000 C   0  0
   25.4733  -20.7923    0.0000 C   0  0
   23.3357  -21.2447    0.0000 O   0  0
   22.6134  -20.8455    0.0000 C   0  0
   26.1495  -18.7255    0.0000 N   0  0
   26.8541  -18.3065    0.0000 C   0  0
   26.8433  -17.4878    0.0000 C   0  0
   26.1265  -17.0840    0.0000 C   0  0
   25.4190  -17.5050    0.0000 C   0  0
   25.4282  -18.3299    0.0000 C   0  0
   27.5356  -18.6361    0.0000 C   0  0
   27.5517  -19.4636    0.0000 C   0  0
   28.2753  -19.8615    0.0000 C   0  0
   28.9831  -19.4331    0.0000 C   0  0
   28.9628  -18.6025    0.0000 C   0  0
   28.2387  -18.2084    0.0000 C   0  0
   28.2189  -17.3834    0.0000 O   0  0
   28.9235  -16.9537    0.0000 C   0  0
   26.8455  -19.8906    0.0000 O   0  0
   26.8622  -20.7156    0.0000 C   0  0
   24.7205  -18.7543    0.0000 O   0  0
   21.9066  -21.2713    0.0000 C   0  0
   21.1844  -20.8720    0.0000 C   0  0
 10  1  1  0
  1  2  1  0
  2  3  2  0
  3  4  1  0
  4  5  2  0
  5  6  1  0
  6  7  2  0
  7  2  1  0
  5  8  1  0
  8  9  1  0
 10 11  1  0
 10 15  1  0
 11 12  1  0
 12 13  1  0
 13 14  1  0
 14 15  1  0
 11 16  1  0
 16 17  2  0
 17 18  1  0
 18 19  2  0
 19 20  1  0
 20 21  2  0
 21 16  1  0
 21 22  1  0
 22 23  1  0
 17 24  1  0
 24 25  1  0
 15 26  2  0
  9 27  1  0
 27 28  1  0
M  END
> <chembl_id>
CHEMBL3113546

$$$$

  SciTegic04091416462D

 30 32  0  0  0  0            999 V2000
   23.1948  -15.7675    0.0000 C   0  0
   22.4874  -16.1924    0.0000 C   0  0
   21.7682  -15.7883    0.0000 C   0  0
   21.0612  -16.2126    0.0000 C   0  0
   21.0750  -17.0385    0.0000 C   0  0
   21.8018  -17.4385    0.0000 C   0  0
   22.5058  -17.0120    0.0000 C   0  0
   20.3681  -17.4644    0.0000 O   0  0
   19.6460  -17.0652    0.0000 C   0  0
   19.6305  -16.2400    0.0000 F   0  0
   18.9391  -17.4910    0.0000 F   0  0
   18.9263  -16.6507    0.0000 F   0  0
   23.1819  -14.9452    0.0000 N   0  0
   23.8865  -14.5262    0.0000 C   0  0
   23.8757  -13.7075    0.0000 C   0  0
   23.1590  -13.3037    0.0000 N   0  0
   22.4514  -13.7247    0.0000 C   0  0
   22.4607  -14.5496    0.0000 C   0  0
   24.5680  -14.8558    0.0000 C   0  0
   24.5841  -15.6833    0.0000 C   0  0
   25.3077  -16.0812    0.0000 C   0  0
   26.0155  -15.6528    0.0000 C   0  0
   25.9952  -14.8222    0.0000 C   0  0
   25.2711  -14.4281    0.0000 C   0  0
   25.2514  -13.6031    0.0000 O   0  0
   25.9560  -13.1734    0.0000 C   0  0
   23.8779  -16.1103    0.0000 O   0  0
   23.8946  -16.9353    0.0000 C   0  0
   21.7529  -14.9740    0.0000 O   0  0
   23.1492  -12.4784    0.0000 C   0  0
 13  1  1  0
  1  2  1  0
  2  3  2  0
  3  4  1  0
  4  5  2  0
  5  6  1  0
  6  7  2  0
  7  2  1  0
  5  8  1  0
  8  9  1  0
  9 10  1  0
  9 11  1  0
  9 12  1  0
 13 14  1  0
 13 18  1  0
 14 15  1  0
 15 16  1  0
 16 17  1  0
 17 18  1  0
 14 19  1  0
 19 20  2  0
 20 21  1  0
 21 22  2  0
 22 23  1  0
 23 24  2  0
 24 19  1  0
 24 25  1  0
 25 26  1  0
 20 27  1  0
 27 28  1  0
 18 29  2  0
 16 30  1  0
M  END
> <chembl_id>
CHEMBL3113758

$$$$

  SciTegic04091416462D

 31 35  0  0  0  0            999 V2000
   22.7587   -1.4517    0.0000 C   0  0
   23.4402   -1.7813    0.0000 C   0  0
   23.4564   -2.6088    0.0000 C   0  0
   24.1800   -3.0068    0.0000 C   0  0
   24.8879   -2.5783    0.0000 C   0  0
   24.8676   -1.7477    0.0000 C   0  0
   24.1435   -1.3535    0.0000 C   0  0
   24.1238   -0.5285    0.0000 O   0  0
   24.8284   -0.0988    0.0000 C   0  0
   22.7501   -3.0358    0.0000 O   0  0
   22.7668   -3.8610    0.0000 C   0  0
   22.1129   -2.7680    0.0000 C   0  0
   21.4053   -3.1930    0.0000 C   0  0
   20.6861   -2.7889    0.0000 C   0  0
   19.9790   -3.2131    0.0000 C   0  0
   21.4237   -4.0126    0.0000 C   0  0
   22.1001   -1.9457    0.0000 N   0  0
   20.7193   -4.4389    0.0000 C   0  0
   19.9950   -4.0397    0.0000 C   0  0
   19.3913   -4.6051    0.0000 O   0  0
   20.5632   -5.2511    0.0000 C   0  0
   19.7463   -5.3530    0.0000 C   0  0
   19.4277   -6.1102    0.0000 C   0  0
   19.9250   -6.7659    0.0000 C   0  0
   20.7445   -6.6597    0.0000 C   0  0
   21.0593   -5.9025    0.0000 C   0  0
   22.4891   -0.6711    0.0000 C   0  0
   21.6667   -0.6839    0.0000 C   0  0
   21.4249   -1.4700    0.0000 C   0  0
   20.6439   -1.7369    0.0000 O   0  0
   21.1712   -0.0239    0.0000 C   0  0
  1  2  1  0
  2  3  2  0
  3  4  1  0
  4  5  2  0
  5  6  1  0
  6  7  2  0
  7  2  1  0
  7  8  1  0
  8  9  1  0
  3 10  1  0
 10 11  1  0
 17 12  1  0
 12 13  1  0
 13 14  2  0
 14 15  1  0
 15 19  2  0
 18 16  2  0
 16 13  1  0
 18 19  1  0
 19 20  1  0
 20 22  1  0
 21 18  1  0
 21 22  2  0
 22 23  1  0
 23 24  2  0
 24 25  1  0
 25 26  2  0
 26 21  1  0
 17  1  1  0
  1 27  1  0
 27 28  1  0
 28 29  1  0
 29 17  1  0
 29 30  2  0
 28 31  1  0
M  END
> <chembl_id>
CHEMBL3113770

$$$$

  SciTegic04091416462D

 28 30  0  0  0  0            999 V2000
   18.9825   -8.5118    0.0000 C   0  0
   18.2751   -8.9368    0.0000 C   0  0
   17.5558   -8.5327    0.0000 C   0  0
   16.8487   -8.9570    0.0000 C   0  0
   16.8626   -9.7830    0.0000 C   0  0
   17.5893  -10.1830    0.0000 C   0  0
   18.2933   -9.7564    0.0000 C   0  0
   16.1556  -10.2089    0.0000 O   0  0
   15.4333   -9.8096    0.0000 C   0  0
   15.4180   -8.9844    0.0000 F   0  0
   14.7264  -10.2355    0.0000 F   0  0
   14.7137   -9.3952    0.0000 F   0  0
   18.9697   -7.6895    0.0000 N   0  0
   19.6743   -7.2705    0.0000 C   0  0
   19.6635   -6.4517    0.0000 C   0  0
   18.9467   -6.0479    0.0000 C   0  0
   18.2391   -6.4689    0.0000 C   0  0
   18.2483   -7.2939    0.0000 C   0  0
   20.3557   -7.6001    0.0000 C   0  0
   20.3720   -8.4276    0.0000 C   0  0
   21.0956   -8.8256    0.0000 C   0  0
   21.8034   -8.3971    0.0000 C   0  0
   21.7831   -7.5665    0.0000 C   0  0
   21.0590   -7.1723    0.0000 C   0  0
   21.0392   -6.3473    0.0000 O   0  0
   21.7439   -5.9176    0.0000 C   0  0
   19.6657   -8.8546    0.0000 Cl  0  0
   17.5405   -7.7183    0.0000 O   0  0
 13  1  1  0
  1  2  1  0
  2  3  2  0
  3  4  1  0
  4  5  2  0
  5  6  1  0
  6  7  2  0
  7  2  1  0
  5  8  1  0
  8  9  1  0
  9 10  1  0
  9 11  1  0
  9 12  1  0
 13 14  1  0
 13 18  1  0
 14 15  1  0
 15 16  1  0
 16 17  1  0
 17 18  1  0
 14 19  1  0
 19 20  2  0
 20 21  1  0
 21 22  2  0
 22 23  1  0
 23 24  2  0
 24 19  1  0
 24 25  1  0
 25 26  1  0
 20 27  1  0
 18 28  2  0
M  END
> <chembl_id>
CHEMBL3113536

$$$$

  SciTegic04091416462D

 28 31  0  0  0  0            999 V2000
    7.8354   -9.8915    0.0000 C   0  0
    8.5166  -10.2209    0.0000 C   0  0
    8.5328  -11.0483    0.0000 C   0  0
    9.2563  -11.4461    0.0000 C   0  0
    9.9639  -11.0178    0.0000 C   0  0
    9.9436  -10.1874    0.0000 C   0  0
    9.2198   -9.7934    0.0000 C   0  0
    9.2000   -8.9685    0.0000 O   0  0
    9.9044   -8.5389    0.0000 C   0  0
    7.8268  -11.4751    0.0000 O   0  0
    7.8434  -12.3002    0.0000 C   0  0
    7.1929  -11.2099    0.0000 C   0  0
    6.4857  -11.6348    0.0000 C   0  0
    5.7666  -11.2307    0.0000 C   0  0
    5.0598  -11.6548    0.0000 C   0  0
    6.5040  -12.4541    0.0000 C   0  0
    7.1801  -10.3879    0.0000 N   0  0
    5.7997  -12.8804    0.0000 C   0  0
    5.0757  -12.4812    0.0000 C   0  0
    4.4722  -13.0465    0.0000 S   0  0
    4.8234  -13.7951    0.0000 C   0  0
    5.6437  -13.6924    0.0000 N   0  0
    4.4250  -14.5178    0.0000 C   0  0
    7.5690   -9.1136    0.0000 C   0  0
    6.7469   -9.1264    0.0000 C   0  0
    6.5052   -9.9122    0.0000 C   0  0
    5.7244  -10.1789    0.0000 O   0  0
    6.2516   -8.4666    0.0000 C   0  0
  1  2  1  0
  2  3  2  0
  3  4  1  0
  4  5  2  0
  5  6  1  0
  6  7  2  0
  7  2  1  0
  7  8  1  0
  8  9  1  0
  3 10  1  0
 10 11  1  0
 17 12  1  0
 12 13  1  0
 13 14  2  0
 14 15  1  0
 15 19  2  0
 18 16  2  0
 16 13  1  0
 18 19  1  0
 19 20  1  0
 20 21  1  0
 21 22  2  0
 22 18  1  0
 21 23  1  0
 17  1  1  0
  1 24  1  0
 24 25  1  0
 25 26  1  0
 26 17  1  0
 26 27  2  0
 25 28  1  0
M  END
> <chembl_id>
CHEMBL3113771

$$$$

  SciTegic04091416462D

 32 36  0  0  0  0            999 V2000
   36.6959   -8.1104    0.0000 C   0  0
   35.9885   -8.5353    0.0000 C   0  0
   35.2693   -8.1313    0.0000 C   0  0
   34.5624   -8.5555    0.0000 C   0  0
   36.0069   -9.3548    0.0000 C   0  0
   36.6831   -7.2882    0.0000 N   0  0
   37.3875   -6.8693    0.0000 C   0  0
   37.3767   -6.0507    0.0000 C   0  0
   36.6601   -5.6468    0.0000 C   0  0
   35.9526   -6.0678    0.0000 C   0  0
   35.9618   -6.8926    0.0000 C   0  0
   38.0689   -7.1989    0.0000 C   0  0
   38.0851   -8.0263    0.0000 C   0  0
   38.8086   -8.4241    0.0000 C   0  0
   39.5163   -7.9958    0.0000 C   0  0
   37.3789   -8.4532    0.0000 O   0  0
   37.3956   -9.2782    0.0000 C   0  0
   35.2541   -7.3170    0.0000 O   0  0
   35.3029   -9.7814    0.0000 C   0  0
   34.5783   -9.3819    0.0000 C   0  0
   35.3198  -10.6063    0.0000 C   0  0
   38.7721   -6.7711    0.0000 C   0  0
   39.4965   -7.1640    0.0000 C   0  0
   40.0941   -6.5964    0.0000 N   0  0
   39.7390   -5.8526    0.0000 C   0  0
   38.9220   -5.9608    0.0000 O   0  0
   40.1323   -5.1272    0.0000 C   0  0
   34.6648  -11.1086    0.0000 N   0  0
   34.9358  -11.8880    0.0000 C   0  0
   35.7609  -11.8711    0.0000 S   0  0
   35.9996  -11.0812    0.0000 C   0  0
   34.4645  -12.5654    0.0000 C   0  0
  6  1  1  0
  1  2  1  0
  2  3  2  0
  3  4  1  0
  4 20  2  0
 19  5  2  0
  5  2  1  0
  6  7  1  0
  6 11  1  0
  7  8  1  0
  8  9  1  0
  9 10  1  0
 10 11  1  0
  7 12  1  0
 12 13  2  0
 13 14  1  0
 14 15  2  0
 15 23  1  0
 22 12  1  0
 13 16  1  0
 16 17  1  0
 11 18  2  0
 19 20  1  0
 19 21  1  0
 22 23  2  0
 23 24  1  0
 24 25  2  0
 25 26  1  0
 26 22  1  0
 25 27  1  0
 21 28  1  0
 28 29  2  0
 29 30  1  0
 30 31  1  0
 31 21  2  0
 29 32  1  0
M  END
> <chembl_id>
CHEMBL3113755

$$$$

  SciTegic04091416462D

 29 31  0  0  0  0            999 V2000
    6.3856  -27.2885    0.0000 C   0  0
    6.4019  -28.1157    0.0000 C   0  0
    7.1251  -28.5135    0.0000 C   0  0
    7.8327  -28.0851    0.0000 C   0  0
    7.8124  -27.2549    0.0000 C   0  0
    7.0887  -26.8608    0.0000 C   0  0
    5.6626  -26.8913    0.0000 C   0  0  2  0  0  0
    5.4129  -26.1058    0.0000 C   0  0
    4.5879  -26.1049    0.0000 C   0  0  1  0  0  0
    4.3322  -26.8893    0.0000 C   0  0
    4.9986  -27.3750    0.0000 N   0  0
    3.5473  -27.1435    0.0000 O   0  0
    7.0689  -26.0362    0.0000 O   0  0
    7.7732  -25.6066    0.0000 C   0  0
    5.6958  -28.5425    0.0000 O   0  0
    5.7125  -29.3673    0.0000 C   0  0
    5.0130  -28.1998    0.0000 C   0  0
    4.3057  -28.6246    0.0000 C   0  0
    3.5867  -28.2207    0.0000 C   0  0
    2.8800  -28.6448    0.0000 C   0  0
    2.8938  -29.4705    0.0000 C   0  0
    3.6203  -29.8704    0.0000 C   0  0
    4.3240  -29.4439    0.0000 C   0  0
    2.1872  -29.8962    0.0000 O   0  0
    1.4651  -29.4971    0.0000 C   0  0
    1.4498  -28.6723    0.0000 F   0  0
    0.7585  -29.9229    0.0000 F   0  0
    0.7458  -29.0828    0.0000 F   0  0
    4.1037  -25.4370    0.0000 C   0  0
  1  2  2  0
  2  3  1  0
  3  4  2  0
  4  5  1  0
  5  6  2  0
  6  1  1  0
  7  1  1  1
  7  8  1  0
  8  9  1  0
  9 10  1  0
 10 11  1  0
 11  7  1  0
 10 12  2  0
  6 13  1  0
 13 14  1  0
  2 15  1  0
 15 16  1  0
 11 17  1  0
 17 18  1  0
 18 19  2  0
 19 20  1  0
 20 21  2  0
 21 22  1  0
 22 23  2  0
 23 18  1  0
 21 24  1  0
 24 25  1  0
 25 26  1  0
 25 27  1  0
 25 28  1  0
  9 29  1  1
M  END
> <chembl_id>
CHEMBL3113764

$$$$

  SciTegic04091416462D

 30 33  0  0  0  0            999 V2000
   19.2198  -26.4918    0.0000 C   0  0
   18.5001  -26.0875    0.0000 C   0  0
   17.7927  -26.5120    0.0000 C   0  0
   17.8065  -27.3386    0.0000 C   0  0
   18.5337  -27.7387    0.0000 C   0  0
   19.2381  -27.3120    0.0000 C   0  0
   19.9148  -25.2439    0.0000 N   0  0
   20.6199  -24.8246    0.0000 C   0  0
   20.6091  -24.0054    0.0000 C   0  0
   19.8918  -23.6012    0.0000 C   0  0
   19.1838  -24.0226    0.0000 C   0  0
   19.1930  -24.8479    0.0000 C   0  0
   21.3017  -25.1544    0.0000 C   0  0
   21.3179  -25.9824    0.0000 C   0  0
   22.0420  -26.3806    0.0000 C   0  0
   22.7502  -25.9518    0.0000 C   0  0
   22.7299  -25.1208    0.0000 C   0  0
   22.0054  -24.7264    0.0000 C   0  0
   21.9856  -23.9009    0.0000 O   0  0
   22.6906  -23.4709    0.0000 C   0  0
   18.4849  -25.2727    0.0000 O   0  0
   20.6113  -26.4097    0.0000 O   0  0
   19.8880  -26.0113    0.0000 C   0  0
   20.6280  -27.2353    0.0000 C   0  0
   18.5509  -28.5644    0.0000 C   0  0
   17.8456  -28.9881    0.0000 C   0  0
   17.8624  -29.8130    0.0000 C   0  0
   18.5865  -30.2116    0.0000 C   0  0
   19.2952  -29.7795    0.0000 C   0  0
   19.2749  -28.9561    0.0000 C   0  0
  7 23  1  0
 23  1  1  0
  1  2  2  0
  2  3  1  0
  3  4  2  0
  4  5  1  0
  5  6  2  0
  6  1  1  0
  7  8  1  0
  7 12  1  0
  8  9  1  0
  9 10  1  0
 10 11  1  0
 11 12  1  0
  8 13  1  0
 13 14  2  0
 14 15  1  0
 15 16  2  0
 16 17  1  0
 17 18  2  0
 18 13  1  0
 18 19  1  0
 19 20  1  0
 12 21  2  0
 14 22  1  0
 22 24  1  0
  5 25  1  0
 25 26  2  0
 26 27  1  0
 27 28  2  0
 28 29  1  0
 29 30  2  0
 30 25  1  0
M  END
> <chembl_id>
CHEMBL3113550

$$$$

  SciTegic04091416462D

 30 33  0  0  0  0            999 V2000
   23.4642  -15.5566    0.0000 C   0  0
   22.7564  -15.9818    0.0000 C   0  0
   22.0366  -15.5774    0.0000 C   0  0
   21.3292  -16.0019    0.0000 C   0  0
   22.7747  -16.8020    0.0000 C   0  0
   23.4514  -14.7339    0.0000 N   0  0
   24.1563  -14.3146    0.0000 C   0  0
   24.1456  -13.4954    0.0000 C   0  0
   23.4283  -13.0912    0.0000 C   0  0
   22.7204  -13.5125    0.0000 C   0  0
   22.7296  -14.3379    0.0000 C   0  0
   24.8382  -14.6444    0.0000 C   0  0
   24.8545  -15.4724    0.0000 C   0  0
   25.5785  -15.8706    0.0000 C   0  0
   26.2868  -15.4418    0.0000 C   0  0
   26.2665  -14.6108    0.0000 C   0  0
   25.5419  -14.2164    0.0000 C   0  0
   25.5221  -13.3909    0.0000 O   0  0
   26.2271  -12.9609    0.0000 C   0  0
   24.1478  -15.8997    0.0000 O   0  0
   24.1645  -16.7253    0.0000 C   0  0
   22.0214  -14.7627    0.0000 O   0  0
   22.0702  -17.2287    0.0000 C   0  0
   21.3452  -16.8289    0.0000 N   0  0
   22.0871  -18.0544    0.0000 C   0  0
   21.3819  -18.4781    0.0000 C   0  0
   21.3983  -19.3030    0.0000 C   0  0
   22.1224  -19.7019    0.0000 C   0  0
   22.8311  -19.2700    0.0000 C   0  0
   22.8111  -18.4466    0.0000 C   0  0
  6  1  1  0
  1  2  1  0
  2  3  2  0
  3  4  1  0
  4 24  2  0
 23  5  2  0
  5  2  1  0
  6  7  1  0
  6 11  1  0
  7  8  1  0
  8  9  1  0
  9 10  1  0
 10 11  1  0
  7 12  1  0
 12 13  2  0
 13 14  1  0
 14 15  2  0
 15 16  1  0
 16 17  2  0
 17 12  1  0
 17 18  1  0
 18 19  1  0
 13 20  1  0
 20 21  1  0
 11 22  2  0
 23 24  1  0
 23 25  1  0
 25 26  2  0
 26 27  1  0
 27 28  2  0
 28 29  1  0
 29 30  2  0
 30 25  1  0
M  END
> <chembl_id>
CHEMBL3113744

$$$$

  SciTegic04091416462D

 29 31  0  0  0  0            999 V2000
   22.1045   -2.9806    0.0000 C   0  0
   21.3970   -3.4056    0.0000 C   0  0
   20.6778   -3.0015    0.0000 C   0  0
   19.9707   -3.4257    0.0000 C   0  0
   19.9846   -4.2518    0.0000 C   0  0
   20.7113   -4.6517    0.0000 C   0  0
   21.4153   -4.2252    0.0000 C   0  0
   19.2776   -4.6777    0.0000 O   0  0
   18.5553   -4.2784    0.0000 C   0  0
   18.5400   -3.4532    0.0000 F   0  0
   17.8484   -4.7042    0.0000 F   0  0
   17.8357   -3.8639    0.0000 F   0  0
   22.0917   -2.1583    0.0000 N   0  0
   22.7962   -1.7393    0.0000 C   0  0
   22.7855   -0.9205    0.0000 C   0  0
   22.0686   -0.5166    0.0000 C   0  0
   21.3611   -0.9376    0.0000 C   0  0
   21.3703   -1.7626    0.0000 C   0  0
   23.4777   -2.0689    0.0000 C   0  0
   23.4940   -2.8965    0.0000 C   0  0
   24.2176   -3.2944    0.0000 C   0  0
   24.9254   -2.8659    0.0000 C   0  0
   24.9051   -2.0353    0.0000 C   0  0
   24.1810   -1.6411    0.0000 C   0  0
   24.1612   -0.8161    0.0000 O   0  0
   24.8658   -0.3864    0.0000 C   0  0
   22.7877   -3.3235    0.0000 O   0  0
   22.8044   -4.1486    0.0000 C   0  0
   20.6625   -2.1871    0.0000 O   0  0
 13  1  1  0
  1  2  1  0
  2  3  2  0
  3  4  1  0
  4  5  2  0
  5  6  1  0
  6  7  2  0
  7  2  1  0
  5  8  1  0
  8  9  1  0
  9 10  1  0
  9 11  1  0
  9 12  1  0
 13 14  1  0
 13 18  1  0
 14 15  1  0
 15 16  1  0
 16 17  1  0
 17 18  1  0
 14 19  1  0
 19 20  2  0
 20 21  1  0
 21 22  2  0
 22 23  1  0
 23 24  2  0
 24 19  1  0
 24 25  1  0
 25 26  1  0
 20 27  1  0
 27 28  1  0
 18 29  2  0
M  END
> <chembl_id>
CHEMBL3113774

$$$$

  SciTegic04091416462D

 30 33  0  0  0  0            999 V2000
    3.6216  -21.4306    0.0000 C   0  0
    2.9142  -21.8554    0.0000 C   0  0
    2.1952  -21.4514    0.0000 C   0  0
    1.4885  -21.8755    0.0000 C   0  0
    2.9326  -22.6747    0.0000 C   0  0
    3.6087  -20.6086    0.0000 N   0  0
    4.3130  -20.1897    0.0000 C   0  0
    4.3022  -19.3712    0.0000 C   0  0
    3.5857  -18.9673    0.0000 C   0  0
    2.8784  -19.3883    0.0000 C   0  0
    2.8876  -20.2130    0.0000 C   0  0
    4.9943  -20.5192    0.0000 C   0  0
    5.0106  -21.3464    0.0000 C   0  0
    5.7338  -21.7442    0.0000 C   0  0
    6.4415  -21.3159    0.0000 C   0  0
    6.4212  -20.4856    0.0000 C   0  0
    5.6974  -20.0915    0.0000 C   0  0
    5.6776  -19.2667    0.0000 O   0  0
    6.3820  -18.8372    0.0000 C   0  0
    4.3045  -21.7732    0.0000 O   0  0
    4.3212  -22.5982    0.0000 C   0  0
    2.1799  -20.6372    0.0000 O   0  0
    2.2288  -23.1012    0.0000 C   0  0
    1.5043  -22.7018    0.0000 C   0  0
    2.2457  -23.9260    0.0000 C   0  0
    1.5907  -24.4282    0.0000 N   0  0
    1.8617  -25.2075    0.0000 C   0  0
    2.6867  -25.1907    0.0000 S   0  0
    2.9253  -24.4009    0.0000 C   0  0
    1.3905  -25.8848    0.0000 C   0  0
  6  1  1  0
  1  2  1  0
  2  3  2  0
  3  4  1  0
  4 24  2  0
 23  5  2  0
  5  2  1  0
  6  7  1  0
  6 11  1  0
  7  8  1  0
  8  9  1  0
  9 10  1  0
 10 11  1  0
  7 12  1  0
 12 13  2  0
 13 14  1  0
 14 15  2  0
 15 16  1  0
 16 17  2  0
 17 12  1  0
 17 18  1  0
 18 19  1  0
 13 20  1  0
 20 21  1  0
 11 22  2  0
 23 24  1  0
 23 25  1  0
 25 26  1  0
 26 27  2  0
 27 28  1  0
 28 29  1  0
 29 25  2  0
 27 30  1  0
M  END
> <chembl_id>
CHEMBL3113746

$$$$

  SciTegic04091416462D

 30 33  0  0  0  0            999 V2000
   11.4595  -25.3942    0.0000 C   0  0
   10.7519  -25.8192    0.0000 C   0  0
   10.0326  -25.4151    0.0000 C   0  0
    9.3255  -25.8393    0.0000 C   0  0
    9.3394  -26.6655    0.0000 C   0  0
   10.0662  -27.0655    0.0000 C   0  0
   10.7703  -26.6389    0.0000 C   0  0
   11.4467  -24.5719    0.0000 N   0  0
   12.1512  -24.1529    0.0000 C   0  0
   12.1404  -23.3341    0.0000 C   0  0
   11.4236  -22.9301    0.0000 C   0  0
   10.7161  -23.3513    0.0000 C   0  0
   10.7252  -24.1762    0.0000 C   0  0
   12.8328  -24.4825    0.0000 C   0  0
   12.8489  -25.3101    0.0000 C   0  0
   13.5726  -25.7080    0.0000 C   0  0
   14.2805  -25.2795    0.0000 C   0  0
   14.2602  -24.4489    0.0000 C   0  0
   13.5361  -24.0547    0.0000 C   0  0
   13.5163  -23.2297    0.0000 O   0  0
   14.2210  -22.7999    0.0000 C   0  0
   12.1426  -25.7371    0.0000 O   0  0
   12.1593  -26.5623    0.0000 C   0  0
   10.0174  -24.6007    0.0000 O   0  0
    8.6325  -27.0914    0.0000 C   0  0
    7.9111  -26.6899    0.0000 C   0  0
    7.2047  -27.1151    0.0000 C   0  0
    7.2196  -27.9412    0.0000 C   0  0
    7.9470  -28.3402    0.0000 C   0  0
    8.6504  -27.9127    0.0000 C   0  0
  8  1  1  0
  1  2  1  0
  2  3  2  0
  3  4  1  0
  4  5  2  0
  5  6  1  0
  6  7  2  0
  7  2  1  0
  8  9  1  0
  8 13  1  0
  9 10  1  0
 10 11  1  0
 11 12  1  0
 12 13  1  0
  9 14  1  0
 14 15  2  0
 15 16  1  0
 16 17  2  0
 17 18  1  0
 18 19  2  0
 19 14  1  0
 19 20  1  0
 20 21  1  0
 15 22  1  0
 22 23  1  0
 13 24  2  0
  5 25  1  0
 25 26  2  0
 26 27  1  0
 27 28  2  0
 28 29  1  0
 29 30  2  0
 30 25  1  0
M  END
> <chembl_id>
CHEMBL3113549

$$$$

  SciTegic04091416462D

 30 32  0  0  0  0            999 V2000
    4.8273  -21.7667    0.0000 C   0  0
    4.1198  -22.1917    0.0000 C   0  0
    3.4005  -21.7876    0.0000 C   0  0
    2.6935  -22.2119    0.0000 C   0  0
    2.7073  -23.0379    0.0000 C   0  0
    3.4342  -23.4379    0.0000 C   0  0
    4.1382  -23.0113    0.0000 C   0  0
    2.0005  -23.4638    0.0000 O   0  0
    1.2782  -23.0645    0.0000 C   0  0
    1.2627  -22.2393    0.0000 F   0  0
    0.5712  -23.4904    0.0000 F   0  0
    0.5585  -22.6501    0.0000 F   0  0
    4.8145  -20.9444    0.0000 N   0  0
    5.5191  -20.5254    0.0000 C   0  0
    5.5082  -19.7066    0.0000 C   0  0
    4.7915  -19.3028    0.0000 C   0  0
    4.0838  -19.7238    0.0000 C   0  0
    4.0931  -20.5487    0.0000 C   0  0
    6.2006  -20.8550    0.0000 C   0  0
    6.2167  -21.6826    0.0000 C   0  0
    6.9403  -22.0805    0.0000 C   0  0
    7.6482  -21.6521    0.0000 C   0  0
    7.6279  -20.8214    0.0000 C   0  0
    6.9038  -20.4272    0.0000 C   0  0
    6.8841  -19.6022    0.0000 O   0  0
    7.5887  -19.1725    0.0000 C   0  0
    5.5105  -22.1096    0.0000 O   0  0
    5.5271  -22.9347    0.0000 C   0  0
    3.3853  -20.9732    0.0000 O   0  0
    4.7817  -18.4774    0.0000 C   0  0
 13  1  1  0
  1  2  1  0
  2  3  2  0
  3  4  1  0
  4  5  2  0
  5  6  1  0
  6  7  2  0
  7  2  1  0
  5  8  1  0
  8  9  1  0
  9 10  1  0
  9 11  1  0
  9 12  1  0
 13 14  1  0
 13 18  1  0
 14 15  1  0
 15 16  1  0
 16 17  1  0
 17 18  1  0
 14 19  1  0
 19 20  2  0
 20 21  1  0
 21 22  2  0
 22 23  1  0
 23 24  2  0
 24 19  1  0
 24 25  1  0
 25 26  1  0
 20 27  1  0
 27 28  1  0
 18 29  2  0
 16 30  1  0
M  END
> <chembl_id>
CHEMBL3113760

$$$$

  SciTegic04091416462D

 29 32  0  0  0  0            999 V2000
   15.4689   -3.0523    0.0000 C   0  0
   15.4852   -3.8797    0.0000 C   0  0
   16.2087   -4.2776    0.0000 C   0  0
   16.9165   -3.8492    0.0000 C   0  0
   16.8962   -3.0187    0.0000 C   0  0
   16.1722   -2.6245    0.0000 C   0  0
   14.7457   -2.6550    0.0000 C   0  0
   13.4150   -2.6530    0.0000 C   0  0
   14.0816   -3.1388    0.0000 N   0  0
   12.6298   -2.9073    0.0000 O   0  0
   16.1524   -1.7996    0.0000 O   0  0
   16.8569   -1.3699    0.0000 C   0  0
   14.7790   -4.3067    0.0000 O   0  0
   14.7957   -5.1317    0.0000 C   0  0
   14.0959   -3.9638    0.0000 C   0  0
   13.3885   -4.3888    0.0000 C   0  0
   12.6692   -3.9848    0.0000 C   0  0
   11.9623   -4.4090    0.0000 C   0  0
   11.9762   -5.2349    0.0000 C   0  0
   12.7028   -5.6349    0.0000 C   0  0
   13.4068   -5.2084    0.0000 C   0  0
   11.2693   -5.6608    0.0000 O   0  0
   10.5471   -5.2616    0.0000 C   0  0
   10.5317   -4.4364    0.0000 F   0  0
    9.8402   -5.6874    0.0000 F   0  0
    9.8276   -4.8471    0.0000 F   0  0
   13.6702   -1.8716    0.0000 C   0  0
   14.4920   -1.8723    0.0000 C   0  0
   14.0817   -1.1602    0.0000 C   0  0
  1  2  2  0
  2  3  1  0
  3  4  2  0
  4  5  1  0
  5  6  2  0
  6  1  1  0
  1  7  1  0
  7 28  1  0
 27  8  1  0
  8  9  1  0
  9  7  1  0
  8 10  2  0
  6 11  1  0
 11 12  1  0
  2 13  1  0
 13 14  1  0
  9 15  1  0
 15 16  1  0
 16 17  2  0
 17 18  1  0
 18 19  2  0
 19 20  1  0
 20 21  2  0
 21 16  1  0
 19 22  1  0
 22 23  1  0
 23 24  1  0
 23 25  1  0
 23 26  1  0
 28 27  1  0
 29 28  1  0
 27 29  1  0
M  END
> <chembl_id>
CHEMBL3113769

$$$$

  SciTegic04091416462D

 31 35  0  0  0  0            999 V2000
   13.5349   -7.7664    0.0000 C   0  0
   12.8268   -8.1916    0.0000 C   0  0
   12.1072   -7.7873    0.0000 C   0  0
   11.3997   -8.2118    0.0000 C   0  0
   12.8452   -9.0118    0.0000 C   0  0
   13.5220   -6.9435    0.0000 N   0  0
   14.2270   -6.5242    0.0000 C   0  0
   14.2161   -5.7050    0.0000 C   0  0
   13.4990   -5.3009    0.0000 C   0  0
   12.7910   -5.7222    0.0000 C   0  0
   12.8001   -6.5477    0.0000 C   0  0
   14.9089   -6.8541    0.0000 C   0  0
   14.9252   -7.6822    0.0000 C   0  0
   15.6491   -8.0803    0.0000 C   0  0
   16.3575   -7.6517    0.0000 C   0  0
   16.3372   -6.8204    0.0000 N   0  0
   15.6126   -6.4261    0.0000 C   0  0
   15.5928   -5.6005    0.0000 O   0  0
   16.2979   -5.1705    0.0000 C   0  0
   14.2184   -8.1094    0.0000 O   0  0
   14.2350   -8.9351    0.0000 C   0  0
   12.0919   -6.9723    0.0000 O   0  0
   12.1404   -9.4384    0.0000 C   0  0
   11.4156   -9.0389    0.0000 C   0  0
   10.8117   -9.6045    0.0000 O   0  0
   11.9843  -10.2510    0.0000 C   0  0
   11.1668  -10.3530    0.0000 C   0  0
   10.8480  -11.1106    0.0000 C   0  0
   11.3455  -11.7668    0.0000 C   0  0
   12.1657  -11.6606    0.0000 C   0  0
   12.4806  -10.9028    0.0000 C   0  0
  6  1  1  0
  1  2  1  0
  2  3  2  0
  3  4  1  0
  4 24  2  0
 23  5  2  0
  5  2  1  0
  6  7  1  0
  6 11  1  0
  7  8  1  0
  8  9  1  0
  9 10  1  0
 10 11  1  0
  7 12  1  0
 12 13  2  0
 13 14  1  0
 14 15  2  0
 15 16  1  0
 16 17  2  0
 17 12  1  0
 17 18  1  0
 18 19  1  0
 13 20  1  0
 20 21  1  0
 11 22  2  0
 23 24  1  0
 24 25  1  0
 25 27  1  0
 26 23  1  0
 26 27  2  0
 27 28  1  0
 28 29  2  0
 29 30  1  0
 30 31  2  0
 31 26  1  0
M  END
> <chembl_id>
CHEMBL3113752

$$$$

  SciTegic04091416462D

 28 31  0  0  0  0            999 V2000
   36.4428   -9.0191    0.0000 C   0  0
   35.7350   -9.4443    0.0000 C   0  0
   35.0155   -9.0401    0.0000 C   0  0
   34.3083   -9.4645    0.0000 C   0  0
   35.7534  -10.2642    0.0000 C   0  0
   36.4299   -8.1966    0.0000 N   0  0
   37.1347   -7.7774    0.0000 C   0  0
   37.1239   -6.9584    0.0000 C   0  0
   36.4069   -6.5544    0.0000 C   0  0
   35.6991   -6.9756    0.0000 C   0  0
   35.7083   -7.8008    0.0000 C   0  0
   37.8164   -8.1072    0.0000 C   0  0
   37.8327   -8.9350    0.0000 C   0  0
   38.5564   -9.3330    0.0000 C   0  0
   39.2646   -8.9045    0.0000 C   0  0
   39.2443   -8.0735    0.0000 C   0  0
   38.5200   -7.6792    0.0000 C   0  0
   38.5002   -6.8539    0.0000 O   0  0
   39.2050   -6.4241    0.0000 C   0  0
   37.1262   -9.3621    0.0000 O   0  0
   37.1429  -10.1875    0.0000 C   0  0
   35.0003   -8.2254    0.0000 O   0  0
   35.0491  -10.6909    0.0000 C   0  0
   34.3241  -10.2913    0.0000 C   0  0
   33.6178  -10.7191    0.0000 N   0  0
   33.6350  -11.5465    0.0000 C   0  0
   34.3647  -11.9442    0.0000 C   0  0
   35.0681  -11.5140    0.0000 C   0  0
  6  1  1  0
  1  2  1  0
  2  3  2  0
  3  4  1  0
  4 24  2  0
 23  5  2  0
  5  2  1  0
  6  7  1  0
  6 11  1  0
  7  8  1  0
  8  9  1  0
  9 10  1  0
 10 11  1  0
  7 12  1  0
 12 13  2  0
 13 14  1  0
 14 15  2  0
 15 16  1  0
 16 17  2  0
 17 12  1  0
 17 18  1  0
 18 19  1  0
 13 20  1  0
 20 21  1  0
 11 22  2  0
 23 24  1  0
 24 25  1  0
 25 26  2  0
 26 27  1  0
 27 28  2  0
 28 23  1  0
M  END
> <chembl_id>
CHEMBL3113740

$$$$

  SciTegic04091416462D

 29 32  0  0  0  0            999 V2000
   31.1286  -22.6140    0.0000 C   0  0
   30.4211  -23.0389    0.0000 C   0  0
   29.7020  -22.6348    0.0000 C   0  0
   28.9951  -23.0590    0.0000 C   0  0
   30.4395  -23.8583    0.0000 C   0  0
   31.1158  -21.7917    0.0000 N   0  0
   31.8202  -21.3728    0.0000 C   0  0
   31.8094  -20.5542    0.0000 C   0  0
   31.0928  -20.1502    0.0000 C   0  0
   30.3853  -20.5712    0.0000 C   0  0
   30.3945  -21.3962    0.0000 C   0  0
   32.5016  -21.7025    0.0000 C   0  0
   32.5179  -22.5297    0.0000 C   0  0
   33.2412  -22.9277    0.0000 C   0  0
   33.9492  -22.4992    0.0000 C   0  0
   33.9289  -21.6688    0.0000 C   0  0
   33.2048  -21.2747    0.0000 C   0  0
   33.1850  -20.4496    0.0000 O   0  0
   33.8896  -20.0201    0.0000 C   0  0
   31.8117  -22.9567    0.0000 O   0  0
   31.8284  -23.7817    0.0000 C   0  0
   29.6868  -21.8204    0.0000 O   0  0
   29.7356  -24.2849    0.0000 C   0  0
   29.0110  -23.8854    0.0000 N   0  0
   29.7525  -25.1098    0.0000 N   0  0
   29.0974  -25.6121    0.0000 N   0  0
   29.3685  -26.3916    0.0000 C   0  0
   30.1935  -26.3747    0.0000 C   0  0
   30.4322  -25.5848    0.0000 C   0  0
  6  1  1  0
  1  2  1  0
  2  3  2  0
  3  4  1  0
  4 24  2  0
 23  5  2  0
  5  2  1  0
  6  7  1  0
  6 11  1  0
  7  8  1  0
  8  9  1  0
  9 10  1  0
 10 11  1  0
  7 12  1  0
 12 13  2  0
 13 14  1  0
 14 15  2  0
 15 16  1  0
 16 17  2  0
 17 12  1  0
 17 18  1  0
 18 19  1  0
 13 20  1  0
 20 21  1  0
 11 22  2  0
 23 24  1  0
 23 25  1  0
 25 26  1  0
 26 27  2  0
 27 28  1  0
 28 29  2  0
 29 25  1  0
M  END
> <chembl_id>
CHEMBL3113750

$$$$

  SciTegic04091416462D

 29 31  0  0  0  0            999 V2000
    6.3856  -27.2885    0.0000 C   0  0
    6.4019  -28.1157    0.0000 C   0  0
    7.1251  -28.5135    0.0000 C   0  0
    7.8327  -28.0851    0.0000 C   0  0
    7.8124  -27.2549    0.0000 C   0  0
    7.0887  -26.8608    0.0000 C   0  0
    5.6626  -26.8913    0.0000 C   0  0  1  0  0  0
    5.4129  -26.1058    0.0000 C   0  0
    4.5879  -26.1049    0.0000 C   0  0  1  0  0  0
    4.3322  -26.8893    0.0000 C   0  0
    4.9986  -27.3750    0.0000 N   0  0
    3.5473  -27.1435    0.0000 O   0  0
    7.0689  -26.0362    0.0000 O   0  0
    7.7732  -25.6066    0.0000 C   0  0
    5.6958  -28.5425    0.0000 O   0  0
    5.7125  -29.3673    0.0000 C   0  0
    5.0130  -28.1998    0.0000 C   0  0
    4.3057  -28.6246    0.0000 C   0  0
    3.5867  -28.2207    0.0000 C   0  0
    2.8800  -28.6448    0.0000 C   0  0
    2.8938  -29.4705    0.0000 C   0  0
    3.6203  -29.8704    0.0000 C   0  0
    4.3240  -29.4439    0.0000 C   0  0
    2.1872  -29.8962    0.0000 O   0  0
    1.4651  -29.4971    0.0000 C   0  0
    1.4498  -28.6723    0.0000 F   0  0
    0.7585  -29.9229    0.0000 F   0  0
    0.7458  -29.0828    0.0000 F   0  0
    4.1037  -25.4370    0.0000 C   0  0
  1  2  2  0
  2  3  1  0
  3  4  2  0
  4  5  1  0
  5  6  2  0
  6  1  1  0
  7  1  1  6
  7  8  1  0
  8  9  1  0
  9 10  1  0
 10 11  1  0
 11  7  1  0
 10 12  2  0
  6 13  1  0
 13 14  1  0
  2 15  1  0
 15 16  1  0
 11 17  1  0
 17 18  1  0
 18 19  2  0
 19 20  1  0
 20 21  2  0
 21 22  1  0
 22 23  2  0
 23 18  1  0
 21 24  1  0
 24 25  1  0
 25 26  1  0
 25 27  1  0
 25 28  1  0
  9 29  1  1
M  END
> <chembl_id>
CHEMBL3113765

$$$$

  SciTegic04091416462D

 30 32  0  0  0  0            999 V2000
   36.8405   -8.1277    0.0000 C   0  0
   36.1330   -8.5526    0.0000 C   0  0
   35.4138   -8.1486    0.0000 C   0  0
   34.7069   -8.5728    0.0000 C   0  0
   34.7208   -9.3988    0.0000 C   0  0
   35.4475   -9.7988    0.0000 C   0  0
   36.1514   -9.3722    0.0000 C   0  0
   34.0139   -9.8247    0.0000 O   0  0
   33.2916   -9.4255    0.0000 C   0  0
   33.2763   -8.6003    0.0000 F   0  0
   32.5847   -9.8513    0.0000 F   0  0
   32.5721   -9.0110    0.0000 F   0  0
   36.8277   -7.3055    0.0000 N   0  0
   37.5322   -6.8865    0.0000 C   0  0
   37.5214   -6.0678    0.0000 C   0  0
   36.8047   -5.6640    0.0000 C   0  0
   36.0972   -6.0850    0.0000 C   0  0
   36.1064   -6.9099    0.0000 C   0  0
   38.2136   -7.2161    0.0000 C   0  0
   38.2299   -8.0436    0.0000 C   0  0
   38.9534   -8.4415    0.0000 C   0  0
   39.6613   -8.0131    0.0000 C   0  0
   39.6410   -7.1825    0.0000 C   0  0
   38.9169   -6.7883    0.0000 C   0  0
   38.8971   -5.9634    0.0000 O   0  0
   39.6017   -5.5337    0.0000 C   0  0
   37.5237   -8.4705    0.0000 O   0  0
   37.5404   -9.2956    0.0000 C   0  0
   38.2632   -9.6937    0.0000 C   0  0
   35.3986   -7.3343    0.0000 O   0  0
 13  1  1  0
  1  2  1  0
  2  3  2  0
  3  4  1  0
  4  5  2  0
  5  6  1  0
  6  7  2  0
  7  2  1  0
  5  8  1  0
  8  9  1  0
  9 10  1  0
  9 11  1  0
  9 12  1  0
 13 14  1  0
 13 18  1  0
 14 15  1  0
 15 16  1  0
 16 17  1  0
 17 18  1  0
 14 19  1  0
 19 20  2  0
 20 21  1  0
 21 22  2  0
 22 23  1  0
 23 24  2  0
 24 19  1  0
 24 25  1  0
 25 26  1  0
 20 27  1  0
 27 28  1  0
 28 29  1  0
 18 30  2  0
M  END
> <chembl_id>
CHEMBL3113538

$$$$

  SciTegic04091416462D

 27 29  0  0  0  0            999 V2000
    4.7061   -8.1987    0.0000 C   0  0
    3.9987   -8.6237    0.0000 C   0  0
    3.2794   -8.2195    0.0000 C   0  0
    2.5724   -8.6438    0.0000 C   0  0
    2.5863   -9.4698    0.0000 C   0  0
    3.3131   -9.8697    0.0000 C   0  0
    4.0171   -9.4432    0.0000 C   0  0
    1.8795   -9.8957    0.0000 O   0  0
    1.1572   -9.4964    0.0000 C   0  0
    1.1419   -8.6713    0.0000 F   0  0
    0.4503   -9.9223    0.0000 F   0  0
    0.4377   -9.0819    0.0000 F   0  0
    4.6934   -7.3765    0.0000 N   0  0
    5.3978   -6.9575    0.0000 C   0  0
    5.3870   -6.1388    0.0000 C   0  0
    4.6703   -5.7348    0.0000 C   0  0
    3.9628   -6.1559    0.0000 C   0  0
    3.9720   -6.9808    0.0000 C   0  0
    6.0793   -7.2871    0.0000 C   0  0
    6.0955   -8.1146    0.0000 C   0  0
    6.8190   -8.5125    0.0000 C   0  0
    7.5268   -8.0840    0.0000 C   0  0
    7.5065   -7.2535    0.0000 C   0  0
    6.7826   -6.8593    0.0000 C   0  0
    6.7628   -6.0343    0.0000 O   0  0
    7.4674   -5.6047    0.0000 C   0  0
    3.2642   -7.4053    0.0000 O   0  0
 13  1  1  0
  1  2  1  0
  2  3  2  0
  3  4  1  0
  4  5  2  0
  5  6  1  0
  6  7  2  0
  7  2  1  0
  5  8  1  0
  8  9  1  0
  9 10  1  0
  9 11  1  0
  9 12  1  0
 13 14  1  0
 13 18  1  0
 14 15  1  0
 15 16  1  0
 16 17  1  0
 17 18  1  0
 14 19  1  0
 19 20  2  0
 20 21  1  0
 21 22  2  0
 22 23  1  0
 23 24  2  0
 24 19  1  0
 24 25  1  0
 25 26  1  0
 18 27  2  0
M  END
> <chembl_id>
CHEMBL3113534

$$$$

  SciTegic04091416462D

 30 32  0  0  0  0            999 V2000
   12.8220  -13.3846    0.0000 C   0  0
   12.1144  -13.8095    0.0000 C   0  0
   11.3952  -13.4054    0.0000 C   0  0
   10.6882  -13.8296    0.0000 C   0  0
   10.7020  -14.6558    0.0000 C   0  0
   11.4288  -15.0557    0.0000 C   0  0
   12.1328  -14.6291    0.0000 C   0  0
    9.9951  -15.0816    0.0000 O   0  0
    9.2728  -14.6823    0.0000 C   0  0
    9.2574  -13.8572    0.0000 F   0  0
    8.5659  -15.1082    0.0000 F   0  0
    8.5532  -14.2678    0.0000 F   0  0
   12.8092  -12.5622    0.0000 N   0  0
   13.5137  -12.1432    0.0000 C   0  0
   13.5029  -11.3245    0.0000 C   0  0
   12.7861  -10.9204    0.0000 C   0  0
   12.0785  -11.3415    0.0000 C   0  0
   12.0877  -12.1665    0.0000 C   0  0
   14.1952  -12.4728    0.0000 C   0  0
   14.2114  -13.3004    0.0000 C   0  0
   14.9350  -13.6981    0.0000 C   0  0
   15.6428  -13.2699    0.0000 C   0  0
   15.6225  -12.4393    0.0000 C   0  0
   14.8985  -12.0451    0.0000 C   0  0
   14.8788  -11.2200    0.0000 O   0  0
   15.5833  -10.7903    0.0000 C   0  0
   13.5052  -13.7272    0.0000 O   0  0
   13.5218  -14.5526    0.0000 C   0  0
   16.3668  -13.6662    0.0000 O   0  0
   16.3854  -14.4913    0.0000 C   0  0
 13  1  1  0
  1  2  1  0
  2  3  2  0
  3  4  1  0
  4  5  2  0
  5  6  1  0
  6  7  2  0
  7  2  1  0
  5  8  1  0
  8  9  1  0
  9 10  1  0
  9 11  1  0
  9 12  1  0
 13 14  1  0
 13 18  1  0
 14 15  1  0
 15 16  1  0
 16 17  1  0
 17 18  1  0
 14 19  1  0
 19 20  2  0
 20 21  1  0
 21 22  2  0
 22 23  1  0
 23 24  2  0
 24 19  1  0
 24 25  1  0
 25 26  1  0
 20 27  1  0
 27 28  1  0
 22 29  1  0
 29 30  1  0
M  END
> <chembl_id>
CHEMBL3112599

$$$$

  SciTegic04091416462D

 30 33  0  0  0  0            999 V2000
   32.0305  -15.8569    0.0000 C   0  0
   31.3230  -16.2819    0.0000 C   0  0
   30.6037  -15.8778    0.0000 C   0  0
   29.8966  -16.3020    0.0000 C   0  0
   31.3413  -17.1016    0.0000 C   0  0
   32.0176  -15.0346    0.0000 N   0  0
   32.7223  -14.6156    0.0000 C   0  0
   32.7115  -13.7968    0.0000 C   0  0
   31.9947  -13.3928    0.0000 C   0  0
   31.2870  -13.8139    0.0000 C   0  0
   31.2963  -14.6389    0.0000 C   0  0
   33.4038  -14.9452    0.0000 C   0  0
   33.4200  -15.7728    0.0000 C   0  0
   34.1436  -16.1707    0.0000 C   0  0
   34.8515  -15.7422    0.0000 C   0  0
   34.8312  -14.9116    0.0000 C   0  0
   34.1071  -14.5174    0.0000 C   0  0
   34.0873  -13.6923    0.0000 O   0  0
   34.7920  -13.2626    0.0000 C   0  0
   32.7137  -16.1998    0.0000 O   0  0
   32.7304  -17.0249    0.0000 C   0  0
   30.5884  -15.0634    0.0000 O   0  0
   30.6373  -17.5281    0.0000 C   0  0
   29.9125  -17.1287    0.0000 C   0  0
   30.6542  -18.3534    0.0000 C   0  0
   29.9492  -18.7769    0.0000 C   0  0
   29.9657  -19.6013    0.0000 C   0  0
   30.6893  -20.0000    0.0000 C   0  0
   31.3978  -19.5684    0.0000 C   0  0
   31.3778  -18.7453    0.0000 N   0  0
  6  1  1  0
  1  2  1  0
  2  3  2  0
  3  4  1  0
  4 24  2  0
 23  5  2  0
  5  2  1  0
  6  7  1  0
  6 11  1  0
  7  8  1  0
  8  9  1  0
  9 10  1  0
 10 11  1  0
  7 12  1  0
 12 13  2  0
 13 14  1  0
 14 15  2  0
 15 16  1  0
 16 17  2  0
 17 12  1  0
 17 18  1  0
 18 19  1  0
 13 20  1  0
 20 21  1  0
 11 22  2  0
 23 24  1  0
 23 25  1  0
 25 26  2  0
 26 27  1  0
 27 28  2  0
 28 29  1  0
 29 30  2  0
 30 25  1  0
M  END
> <chembl_id>
CHEMBL3113745

$$$$

  SciTegic04091416462D

 31 33  0  0  0  0            999 V2000
   12.6194  -19.9140    0.0000 C   0  0
   12.1981  -19.2044    0.0000 C   0  0
   11.7943  -19.9241    0.0000 C   0  0
   13.3628  -21.9568    0.0000 C   0  0
   12.6554  -22.3818    0.0000 C   0  0
   11.9362  -21.9776    0.0000 C   0  0
   11.2292  -22.4019    0.0000 C   0  0
   11.2430  -23.2279    0.0000 C   0  0
   11.9697  -23.6278    0.0000 C   0  0
   12.6737  -23.2013    0.0000 C   0  0
   10.5361  -23.6538    0.0000 O   0  0
    9.8139  -23.2545    0.0000 C   0  0
    9.7985  -22.4294    0.0000 F   0  0
    9.1070  -23.6803    0.0000 F   0  0
    9.0943  -22.8400    0.0000 F   0  0
   13.3500  -21.1346    0.0000 N   0  0
   14.0544  -20.7156    0.0000 C   0  0
   14.0437  -19.8969    0.0000 C   0  0
   13.3269  -19.4930    0.0000 C   0  0
   12.6286  -20.7389    0.0000 C   0  0
   14.7359  -21.0452    0.0000 C   0  0
   14.7521  -21.8726    0.0000 C   0  0
   15.4757  -22.2705    0.0000 C   0  0
   16.1835  -21.8421    0.0000 C   0  0
   16.1632  -21.0116    0.0000 C   0  0
   15.4391  -20.6175    0.0000 C   0  0
   15.4193  -19.7924    0.0000 O   0  0
   16.1239  -19.3628    0.0000 C   0  0
   14.0459  -22.2996    0.0000 O   0  0
   14.0626  -23.1247    0.0000 C   0  0
   11.9209  -21.1633    0.0000 O   0  0
  2  1  1  0
  1  3  1  0
 16  4  1  0
  4  5  1  0
  5  6  2  0
  6  7  1  0
  7  8  2  0
  8  9  1  0
  9 10  2  0
 10  5  1  0
  8 11  1  0
 11 12  1  0
 12 13  1  0
 12 14  1  0
 12 15  1  0
 16 17  1  0
 16 20  1  0
 17 18  1  0
 18 19  1  0
 19  1  1  0
  1 20  1  0
 17 21  1  0
 21 22  2  0
 22 23  1  0
 23 24  2  0
 24 25  1  0
 25 26  2  0
 26 21  1  0
 26 27  1  0
 27 28  1  0
 22 29  1  0
 29 30  1  0
 20 31  2  0
M  END
> <chembl_id>
CHEMBL3113761

$$$$

  SciTegic04091416462D

 28 30  0  0  0  0            999 V2000
   12.6927   -8.1575    0.0000 C   0  0
   11.9852   -8.5825    0.0000 C   0  0
   11.2660   -8.1784    0.0000 C   0  0
   10.5589   -8.6027    0.0000 C   0  0
   10.5727   -9.4287    0.0000 C   0  0
   11.2995   -9.8287    0.0000 C   0  0
   12.0036   -9.4021    0.0000 C   0  0
    9.8658   -9.8546    0.0000 O   0  0
    9.1435   -9.4554    0.0000 C   0  0
    9.1281   -8.6301    0.0000 F   0  0
    8.4366   -9.8812    0.0000 F   0  0
    8.4239   -9.0409    0.0000 F   0  0
   12.6799   -7.3352    0.0000 N   0  0
   13.3845   -6.9162    0.0000 C   0  0
   13.3737   -6.0974    0.0000 C   0  0
   12.6568   -5.6936    0.0000 C   0  0
   11.9493   -6.1146    0.0000 C   0  0
   11.9585   -6.9395    0.0000 C   0  0
   14.0660   -7.2458    0.0000 C   0  0
   14.0821   -8.0734    0.0000 C   0  0
   14.8057   -8.4713    0.0000 C   0  0
   15.5136   -8.0429    0.0000 C   0  0
   15.4933   -7.2122    0.0000 C   0  0
   14.7692   -6.8180    0.0000 C   0  0
   14.7494   -5.9930    0.0000 O   0  0
   15.4540   -5.5633    0.0000 C   0  0
   13.3759   -8.5004    0.0000 C   0  0
   11.2507   -7.3640    0.0000 O   0  0
 13  1  1  0
  1  2  1  0
  2  3  2  0
  3  4  1  0
  4  5  2  0
  5  6  1  0
  6  7  2  0
  7  2  1  0
  5  8  1  0
  8  9  1  0
  9 10  1  0
  9 11  1  0
  9 12  1  0
 13 14  1  0
 13 18  1  0
 14 15  1  0
 15 16  1  0
 16 17  1  0
 17 18  1  0
 14 19  1  0
 19 20  2  0
 20 21  1  0
 21 22  2  0
 22 23  1  0
 23 24  2  0
 24 19  1  0
 24 25  1  0
 25 26  1  0
 20 27  1  0
 18 28  2  0
M  END
> <chembl_id>
CHEMBL3113535

$$$$
